*SPEF "ieee 1481-1999"
*DESIGN "RAM16"
*DATE "11:11:11 Fri 11 11, 1111"
*VENDOR "OpenRCX"
*PROGRAM "Parallel Extraction"
*VERSION "1.0"
*DESIGN_FLOW "NAME_SCOPE LOCAL" "PIN_CAP NONE"
*DIVIDER /
*DELIMITER :
*BUS_DELIMITER []
*T_UNIT 1 NS
*C_UNIT 1 PF
*R_UNIT 1 OHM
*L_UNIT 1 HENRY

*NAME_MAP
*1 A0[0]
*2 A0[1]
*3 A0[2]
*4 A0[3]
*5 CLK
*6 Di0[0]
*7 Di0[1]
*8 Di0[2]
*9 Di0[3]
*10 Di0[4]
*11 Di0[5]
*12 Di0[6]
*13 Di0[7]
*14 WORD\[0\]\.W\.BYTE\[0\]\.B\.Do0\[0\]
*15 WORD\[0\]\.W\.BYTE\[0\]\.B\.Do0\[1\]
*16 WORD\[0\]\.W\.BYTE\[0\]\.B\.Do0\[2\]
*17 WORD\[0\]\.W\.BYTE\[0\]\.B\.Do0\[3\]
*18 WORD\[0\]\.W\.BYTE\[0\]\.B\.Do0\[4\]
*19 WORD\[0\]\.W\.BYTE\[0\]\.B\.Do0\[5\]
*20 WORD\[0\]\.W\.BYTE\[0\]\.B\.Do0\[6\]
*21 WORD\[0\]\.W\.BYTE\[0\]\.B\.Do0\[7\]
*22 EN0
*25 WE0
*26 CLKBUF\.X
*27 DEC0\.D\.SEL\[0\]
*28 DEC0\.D\.SEL\[1\]
*29 DEC0\.D0\.A_buf\[0\]
*30 DEC0\.D0\.A_buf\[1\]
*31 DEC0\.D0\.A_buf\[2\]
*32 DEC0\.D0\.EN_buf
*33 DEC0\.D0\.SEL\[0\]
*34 DEC0\.D0\.SEL\[1\]
*35 DEC0\.D0\.SEL\[2\]
*36 DEC0\.D0\.SEL\[3\]
*37 DEC0\.D0\.SEL\[4\]
*38 DEC0\.D0\.SEL\[5\]
*39 DEC0\.D0\.SEL\[6\]
*40 DEC0\.D0\.SEL\[7\]
*41 DEC0\.D1\.A_buf\[0\]
*42 DEC0\.D1\.A_buf\[1\]
*43 DEC0\.D1\.A_buf\[2\]
*44 DEC0\.D1\.EN_buf
*45 DEC0\.D1\.SEL\[0\]
*46 DEC0\.D1\.SEL\[1\]
*47 DEC0\.D1\.SEL\[2\]
*48 DEC0\.D1\.SEL\[3\]
*49 DEC0\.D1\.SEL\[4\]
*50 DEC0\.D1\.SEL\[5\]
*51 DEC0\.D1\.SEL\[6\]
*52 DEC0\.D1\.SEL\[7\]
*53 WEBUF\[0\]\.X
*54 WORD\[0\]\.W\.BYTE\[0\]\.B\.CLK
*55 WORD\[0\]\.W\.BYTE\[0\]\.B\.GCLK
*56 WORD\[0\]\.W\.BYTE\[0\]\.B\.Q_WIRE\[0\]
*57 WORD\[0\]\.W\.BYTE\[0\]\.B\.Q_WIRE\[1\]
*58 WORD\[0\]\.W\.BYTE\[0\]\.B\.Q_WIRE\[2\]
*59 WORD\[0\]\.W\.BYTE\[0\]\.B\.Q_WIRE\[3\]
*60 WORD\[0\]\.W\.BYTE\[0\]\.B\.Q_WIRE\[4\]
*61 WORD\[0\]\.W\.BYTE\[0\]\.B\.Q_WIRE\[5\]
*62 WORD\[0\]\.W\.BYTE\[0\]\.B\.Q_WIRE\[6\]
*63 WORD\[0\]\.W\.BYTE\[0\]\.B\.Q_WIRE\[7\]
*64 WORD\[0\]\.W\.BYTE\[0\]\.B\.SEL0
*65 WORD\[0\]\.W\.BYTE\[0\]\.B\.SEL0_B
*66 WORD\[0\]\.W\.BYTE\[0\]\.B\.WE0_WIRE
*67 WORD\[10\]\.W\.BYTE\[0\]\.B\.CLK
*68 WORD\[10\]\.W\.BYTE\[0\]\.B\.GCLK
*69 WORD\[10\]\.W\.BYTE\[0\]\.B\.Q_WIRE\[0\]
*70 WORD\[10\]\.W\.BYTE\[0\]\.B\.Q_WIRE\[1\]
*71 WORD\[10\]\.W\.BYTE\[0\]\.B\.Q_WIRE\[2\]
*72 WORD\[10\]\.W\.BYTE\[0\]\.B\.Q_WIRE\[3\]
*73 WORD\[10\]\.W\.BYTE\[0\]\.B\.Q_WIRE\[4\]
*74 WORD\[10\]\.W\.BYTE\[0\]\.B\.Q_WIRE\[5\]
*75 WORD\[10\]\.W\.BYTE\[0\]\.B\.Q_WIRE\[6\]
*76 WORD\[10\]\.W\.BYTE\[0\]\.B\.Q_WIRE\[7\]
*77 WORD\[10\]\.W\.BYTE\[0\]\.B\.SEL0
*78 WORD\[10\]\.W\.BYTE\[0\]\.B\.SEL0_B
*79 WORD\[10\]\.W\.BYTE\[0\]\.B\.WE0_WIRE
*80 WORD\[11\]\.W\.BYTE\[0\]\.B\.CLK
*81 WORD\[11\]\.W\.BYTE\[0\]\.B\.GCLK
*82 WORD\[11\]\.W\.BYTE\[0\]\.B\.Q_WIRE\[0\]
*83 WORD\[11\]\.W\.BYTE\[0\]\.B\.Q_WIRE\[1\]
*84 WORD\[11\]\.W\.BYTE\[0\]\.B\.Q_WIRE\[2\]
*85 WORD\[11\]\.W\.BYTE\[0\]\.B\.Q_WIRE\[3\]
*86 WORD\[11\]\.W\.BYTE\[0\]\.B\.Q_WIRE\[4\]
*87 WORD\[11\]\.W\.BYTE\[0\]\.B\.Q_WIRE\[5\]
*88 WORD\[11\]\.W\.BYTE\[0\]\.B\.Q_WIRE\[6\]
*89 WORD\[11\]\.W\.BYTE\[0\]\.B\.Q_WIRE\[7\]
*90 WORD\[11\]\.W\.BYTE\[0\]\.B\.SEL0
*91 WORD\[11\]\.W\.BYTE\[0\]\.B\.SEL0_B
*92 WORD\[11\]\.W\.BYTE\[0\]\.B\.WE0_WIRE
*93 WORD\[12\]\.W\.BYTE\[0\]\.B\.CLK
*94 WORD\[12\]\.W\.BYTE\[0\]\.B\.GCLK
*95 WORD\[12\]\.W\.BYTE\[0\]\.B\.Q_WIRE\[0\]
*96 WORD\[12\]\.W\.BYTE\[0\]\.B\.Q_WIRE\[1\]
*97 WORD\[12\]\.W\.BYTE\[0\]\.B\.Q_WIRE\[2\]
*98 WORD\[12\]\.W\.BYTE\[0\]\.B\.Q_WIRE\[3\]
*99 WORD\[12\]\.W\.BYTE\[0\]\.B\.Q_WIRE\[4\]
*100 WORD\[12\]\.W\.BYTE\[0\]\.B\.Q_WIRE\[5\]
*101 WORD\[12\]\.W\.BYTE\[0\]\.B\.Q_WIRE\[6\]
*102 WORD\[12\]\.W\.BYTE\[0\]\.B\.Q_WIRE\[7\]
*103 WORD\[12\]\.W\.BYTE\[0\]\.B\.SEL0
*104 WORD\[12\]\.W\.BYTE\[0\]\.B\.SEL0_B
*105 WORD\[12\]\.W\.BYTE\[0\]\.B\.WE0_WIRE
*106 WORD\[13\]\.W\.BYTE\[0\]\.B\.CLK
*107 WORD\[13\]\.W\.BYTE\[0\]\.B\.GCLK
*108 WORD\[13\]\.W\.BYTE\[0\]\.B\.Q_WIRE\[0\]
*109 WORD\[13\]\.W\.BYTE\[0\]\.B\.Q_WIRE\[1\]
*110 WORD\[13\]\.W\.BYTE\[0\]\.B\.Q_WIRE\[2\]
*111 WORD\[13\]\.W\.BYTE\[0\]\.B\.Q_WIRE\[3\]
*112 WORD\[13\]\.W\.BYTE\[0\]\.B\.Q_WIRE\[4\]
*113 WORD\[13\]\.W\.BYTE\[0\]\.B\.Q_WIRE\[5\]
*114 WORD\[13\]\.W\.BYTE\[0\]\.B\.Q_WIRE\[6\]
*115 WORD\[13\]\.W\.BYTE\[0\]\.B\.Q_WIRE\[7\]
*116 WORD\[13\]\.W\.BYTE\[0\]\.B\.SEL0
*117 WORD\[13\]\.W\.BYTE\[0\]\.B\.SEL0_B
*118 WORD\[13\]\.W\.BYTE\[0\]\.B\.WE0_WIRE
*119 WORD\[14\]\.W\.BYTE\[0\]\.B\.CLK
*120 WORD\[14\]\.W\.BYTE\[0\]\.B\.GCLK
*121 WORD\[14\]\.W\.BYTE\[0\]\.B\.Q_WIRE\[0\]
*122 WORD\[14\]\.W\.BYTE\[0\]\.B\.Q_WIRE\[1\]
*123 WORD\[14\]\.W\.BYTE\[0\]\.B\.Q_WIRE\[2\]
*124 WORD\[14\]\.W\.BYTE\[0\]\.B\.Q_WIRE\[3\]
*125 WORD\[14\]\.W\.BYTE\[0\]\.B\.Q_WIRE\[4\]
*126 WORD\[14\]\.W\.BYTE\[0\]\.B\.Q_WIRE\[5\]
*127 WORD\[14\]\.W\.BYTE\[0\]\.B\.Q_WIRE\[6\]
*128 WORD\[14\]\.W\.BYTE\[0\]\.B\.Q_WIRE\[7\]
*129 WORD\[14\]\.W\.BYTE\[0\]\.B\.SEL0
*130 WORD\[14\]\.W\.BYTE\[0\]\.B\.SEL0_B
*131 WORD\[14\]\.W\.BYTE\[0\]\.B\.WE0_WIRE
*132 WORD\[15\]\.W\.BYTE\[0\]\.B\.CLK
*133 WORD\[15\]\.W\.BYTE\[0\]\.B\.GCLK
*134 WORD\[15\]\.W\.BYTE\[0\]\.B\.Q_WIRE\[0\]
*135 WORD\[15\]\.W\.BYTE\[0\]\.B\.Q_WIRE\[1\]
*136 WORD\[15\]\.W\.BYTE\[0\]\.B\.Q_WIRE\[2\]
*137 WORD\[15\]\.W\.BYTE\[0\]\.B\.Q_WIRE\[3\]
*138 WORD\[15\]\.W\.BYTE\[0\]\.B\.Q_WIRE\[4\]
*139 WORD\[15\]\.W\.BYTE\[0\]\.B\.Q_WIRE\[5\]
*140 WORD\[15\]\.W\.BYTE\[0\]\.B\.Q_WIRE\[6\]
*141 WORD\[15\]\.W\.BYTE\[0\]\.B\.Q_WIRE\[7\]
*142 WORD\[15\]\.W\.BYTE\[0\]\.B\.SEL0
*143 WORD\[15\]\.W\.BYTE\[0\]\.B\.SEL0_B
*144 WORD\[15\]\.W\.BYTE\[0\]\.B\.WE0_WIRE
*145 WORD\[1\]\.W\.BYTE\[0\]\.B\.CLK
*146 WORD\[1\]\.W\.BYTE\[0\]\.B\.GCLK
*147 WORD\[1\]\.W\.BYTE\[0\]\.B\.Q_WIRE\[0\]
*148 WORD\[1\]\.W\.BYTE\[0\]\.B\.Q_WIRE\[1\]
*149 WORD\[1\]\.W\.BYTE\[0\]\.B\.Q_WIRE\[2\]
*150 WORD\[1\]\.W\.BYTE\[0\]\.B\.Q_WIRE\[3\]
*151 WORD\[1\]\.W\.BYTE\[0\]\.B\.Q_WIRE\[4\]
*152 WORD\[1\]\.W\.BYTE\[0\]\.B\.Q_WIRE\[5\]
*153 WORD\[1\]\.W\.BYTE\[0\]\.B\.Q_WIRE\[6\]
*154 WORD\[1\]\.W\.BYTE\[0\]\.B\.Q_WIRE\[7\]
*155 WORD\[1\]\.W\.BYTE\[0\]\.B\.SEL0
*156 WORD\[1\]\.W\.BYTE\[0\]\.B\.SEL0_B
*157 WORD\[1\]\.W\.BYTE\[0\]\.B\.WE0_WIRE
*158 WORD\[2\]\.W\.BYTE\[0\]\.B\.CLK
*159 WORD\[2\]\.W\.BYTE\[0\]\.B\.GCLK
*160 WORD\[2\]\.W\.BYTE\[0\]\.B\.Q_WIRE\[0\]
*161 WORD\[2\]\.W\.BYTE\[0\]\.B\.Q_WIRE\[1\]
*162 WORD\[2\]\.W\.BYTE\[0\]\.B\.Q_WIRE\[2\]
*163 WORD\[2\]\.W\.BYTE\[0\]\.B\.Q_WIRE\[3\]
*164 WORD\[2\]\.W\.BYTE\[0\]\.B\.Q_WIRE\[4\]
*165 WORD\[2\]\.W\.BYTE\[0\]\.B\.Q_WIRE\[5\]
*166 WORD\[2\]\.W\.BYTE\[0\]\.B\.Q_WIRE\[6\]
*167 WORD\[2\]\.W\.BYTE\[0\]\.B\.Q_WIRE\[7\]
*168 WORD\[2\]\.W\.BYTE\[0\]\.B\.SEL0
*169 WORD\[2\]\.W\.BYTE\[0\]\.B\.SEL0_B
*170 WORD\[2\]\.W\.BYTE\[0\]\.B\.WE0_WIRE
*171 WORD\[3\]\.W\.BYTE\[0\]\.B\.CLK
*172 WORD\[3\]\.W\.BYTE\[0\]\.B\.GCLK
*173 WORD\[3\]\.W\.BYTE\[0\]\.B\.Q_WIRE\[0\]
*174 WORD\[3\]\.W\.BYTE\[0\]\.B\.Q_WIRE\[1\]
*175 WORD\[3\]\.W\.BYTE\[0\]\.B\.Q_WIRE\[2\]
*176 WORD\[3\]\.W\.BYTE\[0\]\.B\.Q_WIRE\[3\]
*177 WORD\[3\]\.W\.BYTE\[0\]\.B\.Q_WIRE\[4\]
*178 WORD\[3\]\.W\.BYTE\[0\]\.B\.Q_WIRE\[5\]
*179 WORD\[3\]\.W\.BYTE\[0\]\.B\.Q_WIRE\[6\]
*180 WORD\[3\]\.W\.BYTE\[0\]\.B\.Q_WIRE\[7\]
*181 WORD\[3\]\.W\.BYTE\[0\]\.B\.SEL0
*182 WORD\[3\]\.W\.BYTE\[0\]\.B\.SEL0_B
*183 WORD\[3\]\.W\.BYTE\[0\]\.B\.WE0_WIRE
*184 WORD\[4\]\.W\.BYTE\[0\]\.B\.CLK
*185 WORD\[4\]\.W\.BYTE\[0\]\.B\.GCLK
*186 WORD\[4\]\.W\.BYTE\[0\]\.B\.Q_WIRE\[0\]
*187 WORD\[4\]\.W\.BYTE\[0\]\.B\.Q_WIRE\[1\]
*188 WORD\[4\]\.W\.BYTE\[0\]\.B\.Q_WIRE\[2\]
*189 WORD\[4\]\.W\.BYTE\[0\]\.B\.Q_WIRE\[3\]
*190 WORD\[4\]\.W\.BYTE\[0\]\.B\.Q_WIRE\[4\]
*191 WORD\[4\]\.W\.BYTE\[0\]\.B\.Q_WIRE\[5\]
*192 WORD\[4\]\.W\.BYTE\[0\]\.B\.Q_WIRE\[6\]
*193 WORD\[4\]\.W\.BYTE\[0\]\.B\.Q_WIRE\[7\]
*194 WORD\[4\]\.W\.BYTE\[0\]\.B\.SEL0
*195 WORD\[4\]\.W\.BYTE\[0\]\.B\.SEL0_B
*196 WORD\[4\]\.W\.BYTE\[0\]\.B\.WE0_WIRE
*197 WORD\[5\]\.W\.BYTE\[0\]\.B\.CLK
*198 WORD\[5\]\.W\.BYTE\[0\]\.B\.GCLK
*199 WORD\[5\]\.W\.BYTE\[0\]\.B\.Q_WIRE\[0\]
*200 WORD\[5\]\.W\.BYTE\[0\]\.B\.Q_WIRE\[1\]
*201 WORD\[5\]\.W\.BYTE\[0\]\.B\.Q_WIRE\[2\]
*202 WORD\[5\]\.W\.BYTE\[0\]\.B\.Q_WIRE\[3\]
*203 WORD\[5\]\.W\.BYTE\[0\]\.B\.Q_WIRE\[4\]
*204 WORD\[5\]\.W\.BYTE\[0\]\.B\.Q_WIRE\[5\]
*205 WORD\[5\]\.W\.BYTE\[0\]\.B\.Q_WIRE\[6\]
*206 WORD\[5\]\.W\.BYTE\[0\]\.B\.Q_WIRE\[7\]
*207 WORD\[5\]\.W\.BYTE\[0\]\.B\.SEL0
*208 WORD\[5\]\.W\.BYTE\[0\]\.B\.SEL0_B
*209 WORD\[5\]\.W\.BYTE\[0\]\.B\.WE0_WIRE
*210 WORD\[6\]\.W\.BYTE\[0\]\.B\.CLK
*211 WORD\[6\]\.W\.BYTE\[0\]\.B\.GCLK
*212 WORD\[6\]\.W\.BYTE\[0\]\.B\.Q_WIRE\[0\]
*213 WORD\[6\]\.W\.BYTE\[0\]\.B\.Q_WIRE\[1\]
*214 WORD\[6\]\.W\.BYTE\[0\]\.B\.Q_WIRE\[2\]
*215 WORD\[6\]\.W\.BYTE\[0\]\.B\.Q_WIRE\[3\]
*216 WORD\[6\]\.W\.BYTE\[0\]\.B\.Q_WIRE\[4\]
*217 WORD\[6\]\.W\.BYTE\[0\]\.B\.Q_WIRE\[5\]
*218 WORD\[6\]\.W\.BYTE\[0\]\.B\.Q_WIRE\[6\]
*219 WORD\[6\]\.W\.BYTE\[0\]\.B\.Q_WIRE\[7\]
*220 WORD\[6\]\.W\.BYTE\[0\]\.B\.SEL0
*221 WORD\[6\]\.W\.BYTE\[0\]\.B\.SEL0_B
*222 WORD\[6\]\.W\.BYTE\[0\]\.B\.WE0_WIRE
*223 WORD\[7\]\.W\.BYTE\[0\]\.B\.CLK
*224 WORD\[7\]\.W\.BYTE\[0\]\.B\.GCLK
*225 WORD\[7\]\.W\.BYTE\[0\]\.B\.Q_WIRE\[0\]
*226 WORD\[7\]\.W\.BYTE\[0\]\.B\.Q_WIRE\[1\]
*227 WORD\[7\]\.W\.BYTE\[0\]\.B\.Q_WIRE\[2\]
*228 WORD\[7\]\.W\.BYTE\[0\]\.B\.Q_WIRE\[3\]
*229 WORD\[7\]\.W\.BYTE\[0\]\.B\.Q_WIRE\[4\]
*230 WORD\[7\]\.W\.BYTE\[0\]\.B\.Q_WIRE\[5\]
*231 WORD\[7\]\.W\.BYTE\[0\]\.B\.Q_WIRE\[6\]
*232 WORD\[7\]\.W\.BYTE\[0\]\.B\.Q_WIRE\[7\]
*233 WORD\[7\]\.W\.BYTE\[0\]\.B\.SEL0
*234 WORD\[7\]\.W\.BYTE\[0\]\.B\.SEL0_B
*235 WORD\[7\]\.W\.BYTE\[0\]\.B\.WE0_WIRE
*236 WORD\[8\]\.W\.BYTE\[0\]\.B\.CLK
*237 WORD\[8\]\.W\.BYTE\[0\]\.B\.GCLK
*238 WORD\[8\]\.W\.BYTE\[0\]\.B\.Q_WIRE\[0\]
*239 WORD\[8\]\.W\.BYTE\[0\]\.B\.Q_WIRE\[1\]
*240 WORD\[8\]\.W\.BYTE\[0\]\.B\.Q_WIRE\[2\]
*241 WORD\[8\]\.W\.BYTE\[0\]\.B\.Q_WIRE\[3\]
*242 WORD\[8\]\.W\.BYTE\[0\]\.B\.Q_WIRE\[4\]
*243 WORD\[8\]\.W\.BYTE\[0\]\.B\.Q_WIRE\[5\]
*244 WORD\[8\]\.W\.BYTE\[0\]\.B\.Q_WIRE\[6\]
*245 WORD\[8\]\.W\.BYTE\[0\]\.B\.Q_WIRE\[7\]
*246 WORD\[8\]\.W\.BYTE\[0\]\.B\.SEL0
*247 WORD\[8\]\.W\.BYTE\[0\]\.B\.SEL0_B
*248 WORD\[8\]\.W\.BYTE\[0\]\.B\.WE0_WIRE
*249 WORD\[9\]\.W\.BYTE\[0\]\.B\.CLK
*250 WORD\[9\]\.W\.BYTE\[0\]\.B\.GCLK
*251 WORD\[9\]\.W\.BYTE\[0\]\.B\.Q_WIRE\[0\]
*252 WORD\[9\]\.W\.BYTE\[0\]\.B\.Q_WIRE\[1\]
*253 WORD\[9\]\.W\.BYTE\[0\]\.B\.Q_WIRE\[2\]
*254 WORD\[9\]\.W\.BYTE\[0\]\.B\.Q_WIRE\[3\]
*255 WORD\[9\]\.W\.BYTE\[0\]\.B\.Q_WIRE\[4\]
*256 WORD\[9\]\.W\.BYTE\[0\]\.B\.Q_WIRE\[5\]
*257 WORD\[9\]\.W\.BYTE\[0\]\.B\.Q_WIRE\[6\]
*258 WORD\[9\]\.W\.BYTE\[0\]\.B\.Q_WIRE\[7\]
*259 WORD\[9\]\.W\.BYTE\[0\]\.B\.SEL0
*260 WORD\[9\]\.W\.BYTE\[0\]\.B\.SEL0_B
*261 WORD\[9\]\.W\.BYTE\[0\]\.B\.WE0_WIRE
*262 CLKBUF\.__cell__
*263 DEC0\.D\.AND0
*264 DEC0\.D\.AND1
*265 DEC0\.D0\.ABUF\[0\]
*266 DEC0\.D0\.ABUF\[1\]
*267 DEC0\.D0\.ABUF\[2\]
*268 DEC0\.D0\.AND0
*269 DEC0\.D0\.AND1
*270 DEC0\.D0\.AND2
*271 DEC0\.D0\.AND3
*272 DEC0\.D0\.AND4
*273 DEC0\.D0\.AND5
*274 DEC0\.D0\.AND6
*275 DEC0\.D0\.AND7
*276 DEC0\.D0\.ENBUF
*277 DEC0\.D1\.ABUF\[0\]
*278 DEC0\.D1\.ABUF\[1\]
*279 DEC0\.D1\.ABUF\[2\]
*280 DEC0\.D1\.AND0
*281 DEC0\.D1\.AND1
*282 DEC0\.D1\.AND2
*283 DEC0\.D1\.AND3
*284 DEC0\.D1\.AND4
*285 DEC0\.D1\.AND5
*286 DEC0\.D1\.AND6
*287 DEC0\.D1\.AND7
*288 DEC0\.D1\.ENBUF
*289 WEBUF\[0\]\.__cell__
*290 WORD\[0\]\.W\.BYTE\[0\]\.B\.BIT\[0\]\.OBUF0
*291 WORD\[0\]\.W\.BYTE\[0\]\.B\.BIT\[0\]\.genblk1\.STORAGE
*292 WORD\[0\]\.W\.BYTE\[0\]\.B\.BIT\[1\]\.OBUF0
*293 WORD\[0\]\.W\.BYTE\[0\]\.B\.BIT\[1\]\.genblk1\.STORAGE
*294 WORD\[0\]\.W\.BYTE\[0\]\.B\.BIT\[2\]\.OBUF0
*295 WORD\[0\]\.W\.BYTE\[0\]\.B\.BIT\[2\]\.genblk1\.STORAGE
*296 WORD\[0\]\.W\.BYTE\[0\]\.B\.BIT\[3\]\.OBUF0
*297 WORD\[0\]\.W\.BYTE\[0\]\.B\.BIT\[3\]\.genblk1\.STORAGE
*298 WORD\[0\]\.W\.BYTE\[0\]\.B\.BIT\[4\]\.OBUF0
*299 WORD\[0\]\.W\.BYTE\[0\]\.B\.BIT\[4\]\.genblk1\.STORAGE
*300 WORD\[0\]\.W\.BYTE\[0\]\.B\.BIT\[5\]\.OBUF0
*301 WORD\[0\]\.W\.BYTE\[0\]\.B\.BIT\[5\]\.genblk1\.STORAGE
*302 WORD\[0\]\.W\.BYTE\[0\]\.B\.BIT\[6\]\.OBUF0
*303 WORD\[0\]\.W\.BYTE\[0\]\.B\.BIT\[6\]\.genblk1\.STORAGE
*304 WORD\[0\]\.W\.BYTE\[0\]\.B\.BIT\[7\]\.OBUF0
*305 WORD\[0\]\.W\.BYTE\[0\]\.B\.BIT\[7\]\.genblk1\.STORAGE
*306 WORD\[0\]\.W\.BYTE\[0\]\.B\.CGAND
*307 WORD\[0\]\.W\.BYTE\[0\]\.B\.DIODE_CLK
*308 WORD\[0\]\.W\.BYTE\[0\]\.B\.SEL0INV
*309 WORD\[0\]\.W\.BYTE\[0\]\.B\.genblk1\.CG
*310 WORD\[0\]\.W\.CLKBUF
*311 WORD\[0\]\.W\.SEL0BUF
*312 WORD\[10\]\.W\.BYTE\[0\]\.B\.BIT\[0\]\.OBUF0
*313 WORD\[10\]\.W\.BYTE\[0\]\.B\.BIT\[0\]\.genblk1\.STORAGE
*314 WORD\[10\]\.W\.BYTE\[0\]\.B\.BIT\[1\]\.OBUF0
*315 WORD\[10\]\.W\.BYTE\[0\]\.B\.BIT\[1\]\.genblk1\.STORAGE
*316 WORD\[10\]\.W\.BYTE\[0\]\.B\.BIT\[2\]\.OBUF0
*317 WORD\[10\]\.W\.BYTE\[0\]\.B\.BIT\[2\]\.genblk1\.STORAGE
*318 WORD\[10\]\.W\.BYTE\[0\]\.B\.BIT\[3\]\.OBUF0
*319 WORD\[10\]\.W\.BYTE\[0\]\.B\.BIT\[3\]\.genblk1\.STORAGE
*320 WORD\[10\]\.W\.BYTE\[0\]\.B\.BIT\[4\]\.OBUF0
*321 WORD\[10\]\.W\.BYTE\[0\]\.B\.BIT\[4\]\.genblk1\.STORAGE
*322 WORD\[10\]\.W\.BYTE\[0\]\.B\.BIT\[5\]\.OBUF0
*323 WORD\[10\]\.W\.BYTE\[0\]\.B\.BIT\[5\]\.genblk1\.STORAGE
*324 WORD\[10\]\.W\.BYTE\[0\]\.B\.BIT\[6\]\.OBUF0
*325 WORD\[10\]\.W\.BYTE\[0\]\.B\.BIT\[6\]\.genblk1\.STORAGE
*326 WORD\[10\]\.W\.BYTE\[0\]\.B\.BIT\[7\]\.OBUF0
*327 WORD\[10\]\.W\.BYTE\[0\]\.B\.BIT\[7\]\.genblk1\.STORAGE
*328 WORD\[10\]\.W\.BYTE\[0\]\.B\.CGAND
*329 WORD\[10\]\.W\.BYTE\[0\]\.B\.DIODE_CLK
*330 WORD\[10\]\.W\.BYTE\[0\]\.B\.SEL0INV
*331 WORD\[10\]\.W\.BYTE\[0\]\.B\.genblk1\.CG
*332 WORD\[10\]\.W\.CLKBUF
*333 WORD\[10\]\.W\.SEL0BUF
*334 WORD\[11\]\.W\.BYTE\[0\]\.B\.BIT\[0\]\.OBUF0
*335 WORD\[11\]\.W\.BYTE\[0\]\.B\.BIT\[0\]\.genblk1\.STORAGE
*336 WORD\[11\]\.W\.BYTE\[0\]\.B\.BIT\[1\]\.OBUF0
*337 WORD\[11\]\.W\.BYTE\[0\]\.B\.BIT\[1\]\.genblk1\.STORAGE
*338 WORD\[11\]\.W\.BYTE\[0\]\.B\.BIT\[2\]\.OBUF0
*339 WORD\[11\]\.W\.BYTE\[0\]\.B\.BIT\[2\]\.genblk1\.STORAGE
*340 WORD\[11\]\.W\.BYTE\[0\]\.B\.BIT\[3\]\.OBUF0
*341 WORD\[11\]\.W\.BYTE\[0\]\.B\.BIT\[3\]\.genblk1\.STORAGE
*342 WORD\[11\]\.W\.BYTE\[0\]\.B\.BIT\[4\]\.OBUF0
*343 WORD\[11\]\.W\.BYTE\[0\]\.B\.BIT\[4\]\.genblk1\.STORAGE
*344 WORD\[11\]\.W\.BYTE\[0\]\.B\.BIT\[5\]\.OBUF0
*345 WORD\[11\]\.W\.BYTE\[0\]\.B\.BIT\[5\]\.genblk1\.STORAGE
*346 WORD\[11\]\.W\.BYTE\[0\]\.B\.BIT\[6\]\.OBUF0
*347 WORD\[11\]\.W\.BYTE\[0\]\.B\.BIT\[6\]\.genblk1\.STORAGE
*348 WORD\[11\]\.W\.BYTE\[0\]\.B\.BIT\[7\]\.OBUF0
*349 WORD\[11\]\.W\.BYTE\[0\]\.B\.BIT\[7\]\.genblk1\.STORAGE
*350 WORD\[11\]\.W\.BYTE\[0\]\.B\.CGAND
*351 WORD\[11\]\.W\.BYTE\[0\]\.B\.DIODE_CLK
*352 WORD\[11\]\.W\.BYTE\[0\]\.B\.SEL0INV
*353 WORD\[11\]\.W\.BYTE\[0\]\.B\.genblk1\.CG
*354 WORD\[11\]\.W\.CLKBUF
*355 WORD\[11\]\.W\.SEL0BUF
*356 WORD\[12\]\.W\.BYTE\[0\]\.B\.BIT\[0\]\.OBUF0
*357 WORD\[12\]\.W\.BYTE\[0\]\.B\.BIT\[0\]\.genblk1\.STORAGE
*358 WORD\[12\]\.W\.BYTE\[0\]\.B\.BIT\[1\]\.OBUF0
*359 WORD\[12\]\.W\.BYTE\[0\]\.B\.BIT\[1\]\.genblk1\.STORAGE
*360 WORD\[12\]\.W\.BYTE\[0\]\.B\.BIT\[2\]\.OBUF0
*361 WORD\[12\]\.W\.BYTE\[0\]\.B\.BIT\[2\]\.genblk1\.STORAGE
*362 WORD\[12\]\.W\.BYTE\[0\]\.B\.BIT\[3\]\.OBUF0
*363 WORD\[12\]\.W\.BYTE\[0\]\.B\.BIT\[3\]\.genblk1\.STORAGE
*364 WORD\[12\]\.W\.BYTE\[0\]\.B\.BIT\[4\]\.OBUF0
*365 WORD\[12\]\.W\.BYTE\[0\]\.B\.BIT\[4\]\.genblk1\.STORAGE
*366 WORD\[12\]\.W\.BYTE\[0\]\.B\.BIT\[5\]\.OBUF0
*367 WORD\[12\]\.W\.BYTE\[0\]\.B\.BIT\[5\]\.genblk1\.STORAGE
*368 WORD\[12\]\.W\.BYTE\[0\]\.B\.BIT\[6\]\.OBUF0
*369 WORD\[12\]\.W\.BYTE\[0\]\.B\.BIT\[6\]\.genblk1\.STORAGE
*370 WORD\[12\]\.W\.BYTE\[0\]\.B\.BIT\[7\]\.OBUF0
*371 WORD\[12\]\.W\.BYTE\[0\]\.B\.BIT\[7\]\.genblk1\.STORAGE
*372 WORD\[12\]\.W\.BYTE\[0\]\.B\.CGAND
*373 WORD\[12\]\.W\.BYTE\[0\]\.B\.DIODE_CLK
*374 WORD\[12\]\.W\.BYTE\[0\]\.B\.SEL0INV
*375 WORD\[12\]\.W\.BYTE\[0\]\.B\.genblk1\.CG
*376 WORD\[12\]\.W\.CLKBUF
*377 WORD\[12\]\.W\.SEL0BUF
*378 WORD\[13\]\.W\.BYTE\[0\]\.B\.BIT\[0\]\.OBUF0
*379 WORD\[13\]\.W\.BYTE\[0\]\.B\.BIT\[0\]\.genblk1\.STORAGE
*380 WORD\[13\]\.W\.BYTE\[0\]\.B\.BIT\[1\]\.OBUF0
*381 WORD\[13\]\.W\.BYTE\[0\]\.B\.BIT\[1\]\.genblk1\.STORAGE
*382 WORD\[13\]\.W\.BYTE\[0\]\.B\.BIT\[2\]\.OBUF0
*383 WORD\[13\]\.W\.BYTE\[0\]\.B\.BIT\[2\]\.genblk1\.STORAGE
*384 WORD\[13\]\.W\.BYTE\[0\]\.B\.BIT\[3\]\.OBUF0
*385 WORD\[13\]\.W\.BYTE\[0\]\.B\.BIT\[3\]\.genblk1\.STORAGE
*386 WORD\[13\]\.W\.BYTE\[0\]\.B\.BIT\[4\]\.OBUF0
*387 WORD\[13\]\.W\.BYTE\[0\]\.B\.BIT\[4\]\.genblk1\.STORAGE
*388 WORD\[13\]\.W\.BYTE\[0\]\.B\.BIT\[5\]\.OBUF0
*389 WORD\[13\]\.W\.BYTE\[0\]\.B\.BIT\[5\]\.genblk1\.STORAGE
*390 WORD\[13\]\.W\.BYTE\[0\]\.B\.BIT\[6\]\.OBUF0
*391 WORD\[13\]\.W\.BYTE\[0\]\.B\.BIT\[6\]\.genblk1\.STORAGE
*392 WORD\[13\]\.W\.BYTE\[0\]\.B\.BIT\[7\]\.OBUF0
*393 WORD\[13\]\.W\.BYTE\[0\]\.B\.BIT\[7\]\.genblk1\.STORAGE
*394 WORD\[13\]\.W\.BYTE\[0\]\.B\.CGAND
*395 WORD\[13\]\.W\.BYTE\[0\]\.B\.DIODE_CLK
*396 WORD\[13\]\.W\.BYTE\[0\]\.B\.SEL0INV
*397 WORD\[13\]\.W\.BYTE\[0\]\.B\.genblk1\.CG
*398 WORD\[13\]\.W\.CLKBUF
*399 WORD\[13\]\.W\.SEL0BUF
*400 WORD\[14\]\.W\.BYTE\[0\]\.B\.BIT\[0\]\.OBUF0
*401 WORD\[14\]\.W\.BYTE\[0\]\.B\.BIT\[0\]\.genblk1\.STORAGE
*402 WORD\[14\]\.W\.BYTE\[0\]\.B\.BIT\[1\]\.OBUF0
*403 WORD\[14\]\.W\.BYTE\[0\]\.B\.BIT\[1\]\.genblk1\.STORAGE
*404 WORD\[14\]\.W\.BYTE\[0\]\.B\.BIT\[2\]\.OBUF0
*405 WORD\[14\]\.W\.BYTE\[0\]\.B\.BIT\[2\]\.genblk1\.STORAGE
*406 WORD\[14\]\.W\.BYTE\[0\]\.B\.BIT\[3\]\.OBUF0
*407 WORD\[14\]\.W\.BYTE\[0\]\.B\.BIT\[3\]\.genblk1\.STORAGE
*408 WORD\[14\]\.W\.BYTE\[0\]\.B\.BIT\[4\]\.OBUF0
*409 WORD\[14\]\.W\.BYTE\[0\]\.B\.BIT\[4\]\.genblk1\.STORAGE
*410 WORD\[14\]\.W\.BYTE\[0\]\.B\.BIT\[5\]\.OBUF0
*411 WORD\[14\]\.W\.BYTE\[0\]\.B\.BIT\[5\]\.genblk1\.STORAGE
*412 WORD\[14\]\.W\.BYTE\[0\]\.B\.BIT\[6\]\.OBUF0
*413 WORD\[14\]\.W\.BYTE\[0\]\.B\.BIT\[6\]\.genblk1\.STORAGE
*414 WORD\[14\]\.W\.BYTE\[0\]\.B\.BIT\[7\]\.OBUF0
*415 WORD\[14\]\.W\.BYTE\[0\]\.B\.BIT\[7\]\.genblk1\.STORAGE
*416 WORD\[14\]\.W\.BYTE\[0\]\.B\.CGAND
*417 WORD\[14\]\.W\.BYTE\[0\]\.B\.DIODE_CLK
*418 WORD\[14\]\.W\.BYTE\[0\]\.B\.SEL0INV
*419 WORD\[14\]\.W\.BYTE\[0\]\.B\.genblk1\.CG
*420 WORD\[14\]\.W\.CLKBUF
*421 WORD\[14\]\.W\.SEL0BUF
*422 WORD\[15\]\.W\.BYTE\[0\]\.B\.BIT\[0\]\.OBUF0
*423 WORD\[15\]\.W\.BYTE\[0\]\.B\.BIT\[0\]\.genblk1\.STORAGE
*424 WORD\[15\]\.W\.BYTE\[0\]\.B\.BIT\[1\]\.OBUF0
*425 WORD\[15\]\.W\.BYTE\[0\]\.B\.BIT\[1\]\.genblk1\.STORAGE
*426 WORD\[15\]\.W\.BYTE\[0\]\.B\.BIT\[2\]\.OBUF0
*427 WORD\[15\]\.W\.BYTE\[0\]\.B\.BIT\[2\]\.genblk1\.STORAGE
*428 WORD\[15\]\.W\.BYTE\[0\]\.B\.BIT\[3\]\.OBUF0
*429 WORD\[15\]\.W\.BYTE\[0\]\.B\.BIT\[3\]\.genblk1\.STORAGE
*430 WORD\[15\]\.W\.BYTE\[0\]\.B\.BIT\[4\]\.OBUF0
*431 WORD\[15\]\.W\.BYTE\[0\]\.B\.BIT\[4\]\.genblk1\.STORAGE
*432 WORD\[15\]\.W\.BYTE\[0\]\.B\.BIT\[5\]\.OBUF0
*433 WORD\[15\]\.W\.BYTE\[0\]\.B\.BIT\[5\]\.genblk1\.STORAGE
*434 WORD\[15\]\.W\.BYTE\[0\]\.B\.BIT\[6\]\.OBUF0
*435 WORD\[15\]\.W\.BYTE\[0\]\.B\.BIT\[6\]\.genblk1\.STORAGE
*436 WORD\[15\]\.W\.BYTE\[0\]\.B\.BIT\[7\]\.OBUF0
*437 WORD\[15\]\.W\.BYTE\[0\]\.B\.BIT\[7\]\.genblk1\.STORAGE
*438 WORD\[15\]\.W\.BYTE\[0\]\.B\.CGAND
*439 WORD\[15\]\.W\.BYTE\[0\]\.B\.DIODE_CLK
*440 WORD\[15\]\.W\.BYTE\[0\]\.B\.SEL0INV
*441 WORD\[15\]\.W\.BYTE\[0\]\.B\.genblk1\.CG
*442 WORD\[15\]\.W\.CLKBUF
*443 WORD\[15\]\.W\.SEL0BUF
*444 WORD\[1\]\.W\.BYTE\[0\]\.B\.BIT\[0\]\.OBUF0
*445 WORD\[1\]\.W\.BYTE\[0\]\.B\.BIT\[0\]\.genblk1\.STORAGE
*446 WORD\[1\]\.W\.BYTE\[0\]\.B\.BIT\[1\]\.OBUF0
*447 WORD\[1\]\.W\.BYTE\[0\]\.B\.BIT\[1\]\.genblk1\.STORAGE
*448 WORD\[1\]\.W\.BYTE\[0\]\.B\.BIT\[2\]\.OBUF0
*449 WORD\[1\]\.W\.BYTE\[0\]\.B\.BIT\[2\]\.genblk1\.STORAGE
*450 WORD\[1\]\.W\.BYTE\[0\]\.B\.BIT\[3\]\.OBUF0
*451 WORD\[1\]\.W\.BYTE\[0\]\.B\.BIT\[3\]\.genblk1\.STORAGE
*452 WORD\[1\]\.W\.BYTE\[0\]\.B\.BIT\[4\]\.OBUF0
*453 WORD\[1\]\.W\.BYTE\[0\]\.B\.BIT\[4\]\.genblk1\.STORAGE
*454 WORD\[1\]\.W\.BYTE\[0\]\.B\.BIT\[5\]\.OBUF0
*455 WORD\[1\]\.W\.BYTE\[0\]\.B\.BIT\[5\]\.genblk1\.STORAGE
*456 WORD\[1\]\.W\.BYTE\[0\]\.B\.BIT\[6\]\.OBUF0
*457 WORD\[1\]\.W\.BYTE\[0\]\.B\.BIT\[6\]\.genblk1\.STORAGE
*458 WORD\[1\]\.W\.BYTE\[0\]\.B\.BIT\[7\]\.OBUF0
*459 WORD\[1\]\.W\.BYTE\[0\]\.B\.BIT\[7\]\.genblk1\.STORAGE
*460 WORD\[1\]\.W\.BYTE\[0\]\.B\.CGAND
*461 WORD\[1\]\.W\.BYTE\[0\]\.B\.DIODE_CLK
*462 WORD\[1\]\.W\.BYTE\[0\]\.B\.SEL0INV
*463 WORD\[1\]\.W\.BYTE\[0\]\.B\.genblk1\.CG
*464 WORD\[1\]\.W\.CLKBUF
*465 WORD\[1\]\.W\.SEL0BUF
*466 WORD\[2\]\.W\.BYTE\[0\]\.B\.BIT\[0\]\.OBUF0
*467 WORD\[2\]\.W\.BYTE\[0\]\.B\.BIT\[0\]\.genblk1\.STORAGE
*468 WORD\[2\]\.W\.BYTE\[0\]\.B\.BIT\[1\]\.OBUF0
*469 WORD\[2\]\.W\.BYTE\[0\]\.B\.BIT\[1\]\.genblk1\.STORAGE
*470 WORD\[2\]\.W\.BYTE\[0\]\.B\.BIT\[2\]\.OBUF0
*471 WORD\[2\]\.W\.BYTE\[0\]\.B\.BIT\[2\]\.genblk1\.STORAGE
*472 WORD\[2\]\.W\.BYTE\[0\]\.B\.BIT\[3\]\.OBUF0
*473 WORD\[2\]\.W\.BYTE\[0\]\.B\.BIT\[3\]\.genblk1\.STORAGE
*474 WORD\[2\]\.W\.BYTE\[0\]\.B\.BIT\[4\]\.OBUF0
*475 WORD\[2\]\.W\.BYTE\[0\]\.B\.BIT\[4\]\.genblk1\.STORAGE
*476 WORD\[2\]\.W\.BYTE\[0\]\.B\.BIT\[5\]\.OBUF0
*477 WORD\[2\]\.W\.BYTE\[0\]\.B\.BIT\[5\]\.genblk1\.STORAGE
*478 WORD\[2\]\.W\.BYTE\[0\]\.B\.BIT\[6\]\.OBUF0
*479 WORD\[2\]\.W\.BYTE\[0\]\.B\.BIT\[6\]\.genblk1\.STORAGE
*480 WORD\[2\]\.W\.BYTE\[0\]\.B\.BIT\[7\]\.OBUF0
*481 WORD\[2\]\.W\.BYTE\[0\]\.B\.BIT\[7\]\.genblk1\.STORAGE
*482 WORD\[2\]\.W\.BYTE\[0\]\.B\.CGAND
*483 WORD\[2\]\.W\.BYTE\[0\]\.B\.DIODE_CLK
*484 WORD\[2\]\.W\.BYTE\[0\]\.B\.SEL0INV
*485 WORD\[2\]\.W\.BYTE\[0\]\.B\.genblk1\.CG
*486 WORD\[2\]\.W\.CLKBUF
*487 WORD\[2\]\.W\.SEL0BUF
*488 WORD\[3\]\.W\.BYTE\[0\]\.B\.BIT\[0\]\.OBUF0
*489 WORD\[3\]\.W\.BYTE\[0\]\.B\.BIT\[0\]\.genblk1\.STORAGE
*490 WORD\[3\]\.W\.BYTE\[0\]\.B\.BIT\[1\]\.OBUF0
*491 WORD\[3\]\.W\.BYTE\[0\]\.B\.BIT\[1\]\.genblk1\.STORAGE
*492 WORD\[3\]\.W\.BYTE\[0\]\.B\.BIT\[2\]\.OBUF0
*493 WORD\[3\]\.W\.BYTE\[0\]\.B\.BIT\[2\]\.genblk1\.STORAGE
*494 WORD\[3\]\.W\.BYTE\[0\]\.B\.BIT\[3\]\.OBUF0
*495 WORD\[3\]\.W\.BYTE\[0\]\.B\.BIT\[3\]\.genblk1\.STORAGE
*496 WORD\[3\]\.W\.BYTE\[0\]\.B\.BIT\[4\]\.OBUF0
*497 WORD\[3\]\.W\.BYTE\[0\]\.B\.BIT\[4\]\.genblk1\.STORAGE
*498 WORD\[3\]\.W\.BYTE\[0\]\.B\.BIT\[5\]\.OBUF0
*499 WORD\[3\]\.W\.BYTE\[0\]\.B\.BIT\[5\]\.genblk1\.STORAGE
*500 WORD\[3\]\.W\.BYTE\[0\]\.B\.BIT\[6\]\.OBUF0
*501 WORD\[3\]\.W\.BYTE\[0\]\.B\.BIT\[6\]\.genblk1\.STORAGE
*502 WORD\[3\]\.W\.BYTE\[0\]\.B\.BIT\[7\]\.OBUF0
*503 WORD\[3\]\.W\.BYTE\[0\]\.B\.BIT\[7\]\.genblk1\.STORAGE
*504 WORD\[3\]\.W\.BYTE\[0\]\.B\.CGAND
*505 WORD\[3\]\.W\.BYTE\[0\]\.B\.DIODE_CLK
*506 WORD\[3\]\.W\.BYTE\[0\]\.B\.SEL0INV
*507 WORD\[3\]\.W\.BYTE\[0\]\.B\.genblk1\.CG
*508 WORD\[3\]\.W\.CLKBUF
*509 WORD\[3\]\.W\.SEL0BUF
*510 WORD\[4\]\.W\.BYTE\[0\]\.B\.BIT\[0\]\.OBUF0
*511 WORD\[4\]\.W\.BYTE\[0\]\.B\.BIT\[0\]\.genblk1\.STORAGE
*512 WORD\[4\]\.W\.BYTE\[0\]\.B\.BIT\[1\]\.OBUF0
*513 WORD\[4\]\.W\.BYTE\[0\]\.B\.BIT\[1\]\.genblk1\.STORAGE
*514 WORD\[4\]\.W\.BYTE\[0\]\.B\.BIT\[2\]\.OBUF0
*515 WORD\[4\]\.W\.BYTE\[0\]\.B\.BIT\[2\]\.genblk1\.STORAGE
*516 WORD\[4\]\.W\.BYTE\[0\]\.B\.BIT\[3\]\.OBUF0
*517 WORD\[4\]\.W\.BYTE\[0\]\.B\.BIT\[3\]\.genblk1\.STORAGE
*518 WORD\[4\]\.W\.BYTE\[0\]\.B\.BIT\[4\]\.OBUF0
*519 WORD\[4\]\.W\.BYTE\[0\]\.B\.BIT\[4\]\.genblk1\.STORAGE
*520 WORD\[4\]\.W\.BYTE\[0\]\.B\.BIT\[5\]\.OBUF0
*521 WORD\[4\]\.W\.BYTE\[0\]\.B\.BIT\[5\]\.genblk1\.STORAGE
*522 WORD\[4\]\.W\.BYTE\[0\]\.B\.BIT\[6\]\.OBUF0
*523 WORD\[4\]\.W\.BYTE\[0\]\.B\.BIT\[6\]\.genblk1\.STORAGE
*524 WORD\[4\]\.W\.BYTE\[0\]\.B\.BIT\[7\]\.OBUF0
*525 WORD\[4\]\.W\.BYTE\[0\]\.B\.BIT\[7\]\.genblk1\.STORAGE
*526 WORD\[4\]\.W\.BYTE\[0\]\.B\.CGAND
*527 WORD\[4\]\.W\.BYTE\[0\]\.B\.DIODE_CLK
*528 WORD\[4\]\.W\.BYTE\[0\]\.B\.SEL0INV
*529 WORD\[4\]\.W\.BYTE\[0\]\.B\.genblk1\.CG
*530 WORD\[4\]\.W\.CLKBUF
*531 WORD\[4\]\.W\.SEL0BUF
*532 WORD\[5\]\.W\.BYTE\[0\]\.B\.BIT\[0\]\.OBUF0
*533 WORD\[5\]\.W\.BYTE\[0\]\.B\.BIT\[0\]\.genblk1\.STORAGE
*534 WORD\[5\]\.W\.BYTE\[0\]\.B\.BIT\[1\]\.OBUF0
*535 WORD\[5\]\.W\.BYTE\[0\]\.B\.BIT\[1\]\.genblk1\.STORAGE
*536 WORD\[5\]\.W\.BYTE\[0\]\.B\.BIT\[2\]\.OBUF0
*537 WORD\[5\]\.W\.BYTE\[0\]\.B\.BIT\[2\]\.genblk1\.STORAGE
*538 WORD\[5\]\.W\.BYTE\[0\]\.B\.BIT\[3\]\.OBUF0
*539 WORD\[5\]\.W\.BYTE\[0\]\.B\.BIT\[3\]\.genblk1\.STORAGE
*540 WORD\[5\]\.W\.BYTE\[0\]\.B\.BIT\[4\]\.OBUF0
*541 WORD\[5\]\.W\.BYTE\[0\]\.B\.BIT\[4\]\.genblk1\.STORAGE
*542 WORD\[5\]\.W\.BYTE\[0\]\.B\.BIT\[5\]\.OBUF0
*543 WORD\[5\]\.W\.BYTE\[0\]\.B\.BIT\[5\]\.genblk1\.STORAGE
*544 WORD\[5\]\.W\.BYTE\[0\]\.B\.BIT\[6\]\.OBUF0
*545 WORD\[5\]\.W\.BYTE\[0\]\.B\.BIT\[6\]\.genblk1\.STORAGE
*546 WORD\[5\]\.W\.BYTE\[0\]\.B\.BIT\[7\]\.OBUF0
*547 WORD\[5\]\.W\.BYTE\[0\]\.B\.BIT\[7\]\.genblk1\.STORAGE
*548 WORD\[5\]\.W\.BYTE\[0\]\.B\.CGAND
*549 WORD\[5\]\.W\.BYTE\[0\]\.B\.DIODE_CLK
*550 WORD\[5\]\.W\.BYTE\[0\]\.B\.SEL0INV
*551 WORD\[5\]\.W\.BYTE\[0\]\.B\.genblk1\.CG
*552 WORD\[5\]\.W\.CLKBUF
*553 WORD\[5\]\.W\.SEL0BUF
*554 WORD\[6\]\.W\.BYTE\[0\]\.B\.BIT\[0\]\.OBUF0
*555 WORD\[6\]\.W\.BYTE\[0\]\.B\.BIT\[0\]\.genblk1\.STORAGE
*556 WORD\[6\]\.W\.BYTE\[0\]\.B\.BIT\[1\]\.OBUF0
*557 WORD\[6\]\.W\.BYTE\[0\]\.B\.BIT\[1\]\.genblk1\.STORAGE
*558 WORD\[6\]\.W\.BYTE\[0\]\.B\.BIT\[2\]\.OBUF0
*559 WORD\[6\]\.W\.BYTE\[0\]\.B\.BIT\[2\]\.genblk1\.STORAGE
*560 WORD\[6\]\.W\.BYTE\[0\]\.B\.BIT\[3\]\.OBUF0
*561 WORD\[6\]\.W\.BYTE\[0\]\.B\.BIT\[3\]\.genblk1\.STORAGE
*562 WORD\[6\]\.W\.BYTE\[0\]\.B\.BIT\[4\]\.OBUF0
*563 WORD\[6\]\.W\.BYTE\[0\]\.B\.BIT\[4\]\.genblk1\.STORAGE
*564 WORD\[6\]\.W\.BYTE\[0\]\.B\.BIT\[5\]\.OBUF0
*565 WORD\[6\]\.W\.BYTE\[0\]\.B\.BIT\[5\]\.genblk1\.STORAGE
*566 WORD\[6\]\.W\.BYTE\[0\]\.B\.BIT\[6\]\.OBUF0
*567 WORD\[6\]\.W\.BYTE\[0\]\.B\.BIT\[6\]\.genblk1\.STORAGE
*568 WORD\[6\]\.W\.BYTE\[0\]\.B\.BIT\[7\]\.OBUF0
*569 WORD\[6\]\.W\.BYTE\[0\]\.B\.BIT\[7\]\.genblk1\.STORAGE
*570 WORD\[6\]\.W\.BYTE\[0\]\.B\.CGAND
*571 WORD\[6\]\.W\.BYTE\[0\]\.B\.DIODE_CLK
*572 WORD\[6\]\.W\.BYTE\[0\]\.B\.SEL0INV
*573 WORD\[6\]\.W\.BYTE\[0\]\.B\.genblk1\.CG
*574 WORD\[6\]\.W\.CLKBUF
*575 WORD\[6\]\.W\.SEL0BUF
*576 WORD\[7\]\.W\.BYTE\[0\]\.B\.BIT\[0\]\.OBUF0
*577 WORD\[7\]\.W\.BYTE\[0\]\.B\.BIT\[0\]\.genblk1\.STORAGE
*578 WORD\[7\]\.W\.BYTE\[0\]\.B\.BIT\[1\]\.OBUF0
*579 WORD\[7\]\.W\.BYTE\[0\]\.B\.BIT\[1\]\.genblk1\.STORAGE
*580 WORD\[7\]\.W\.BYTE\[0\]\.B\.BIT\[2\]\.OBUF0
*581 WORD\[7\]\.W\.BYTE\[0\]\.B\.BIT\[2\]\.genblk1\.STORAGE
*582 WORD\[7\]\.W\.BYTE\[0\]\.B\.BIT\[3\]\.OBUF0
*583 WORD\[7\]\.W\.BYTE\[0\]\.B\.BIT\[3\]\.genblk1\.STORAGE
*584 WORD\[7\]\.W\.BYTE\[0\]\.B\.BIT\[4\]\.OBUF0
*585 WORD\[7\]\.W\.BYTE\[0\]\.B\.BIT\[4\]\.genblk1\.STORAGE
*586 WORD\[7\]\.W\.BYTE\[0\]\.B\.BIT\[5\]\.OBUF0
*587 WORD\[7\]\.W\.BYTE\[0\]\.B\.BIT\[5\]\.genblk1\.STORAGE
*588 WORD\[7\]\.W\.BYTE\[0\]\.B\.BIT\[6\]\.OBUF0
*589 WORD\[7\]\.W\.BYTE\[0\]\.B\.BIT\[6\]\.genblk1\.STORAGE
*590 WORD\[7\]\.W\.BYTE\[0\]\.B\.BIT\[7\]\.OBUF0
*591 WORD\[7\]\.W\.BYTE\[0\]\.B\.BIT\[7\]\.genblk1\.STORAGE
*592 WORD\[7\]\.W\.BYTE\[0\]\.B\.CGAND
*593 WORD\[7\]\.W\.BYTE\[0\]\.B\.DIODE_CLK
*594 WORD\[7\]\.W\.BYTE\[0\]\.B\.SEL0INV
*595 WORD\[7\]\.W\.BYTE\[0\]\.B\.genblk1\.CG
*596 WORD\[7\]\.W\.CLKBUF
*597 WORD\[7\]\.W\.SEL0BUF
*598 WORD\[8\]\.W\.BYTE\[0\]\.B\.BIT\[0\]\.OBUF0
*599 WORD\[8\]\.W\.BYTE\[0\]\.B\.BIT\[0\]\.genblk1\.STORAGE
*600 WORD\[8\]\.W\.BYTE\[0\]\.B\.BIT\[1\]\.OBUF0
*601 WORD\[8\]\.W\.BYTE\[0\]\.B\.BIT\[1\]\.genblk1\.STORAGE
*602 WORD\[8\]\.W\.BYTE\[0\]\.B\.BIT\[2\]\.OBUF0
*603 WORD\[8\]\.W\.BYTE\[0\]\.B\.BIT\[2\]\.genblk1\.STORAGE
*604 WORD\[8\]\.W\.BYTE\[0\]\.B\.BIT\[3\]\.OBUF0
*605 WORD\[8\]\.W\.BYTE\[0\]\.B\.BIT\[3\]\.genblk1\.STORAGE
*606 WORD\[8\]\.W\.BYTE\[0\]\.B\.BIT\[4\]\.OBUF0
*607 WORD\[8\]\.W\.BYTE\[0\]\.B\.BIT\[4\]\.genblk1\.STORAGE
*608 WORD\[8\]\.W\.BYTE\[0\]\.B\.BIT\[5\]\.OBUF0
*609 WORD\[8\]\.W\.BYTE\[0\]\.B\.BIT\[5\]\.genblk1\.STORAGE
*610 WORD\[8\]\.W\.BYTE\[0\]\.B\.BIT\[6\]\.OBUF0
*611 WORD\[8\]\.W\.BYTE\[0\]\.B\.BIT\[6\]\.genblk1\.STORAGE
*612 WORD\[8\]\.W\.BYTE\[0\]\.B\.BIT\[7\]\.OBUF0
*613 WORD\[8\]\.W\.BYTE\[0\]\.B\.BIT\[7\]\.genblk1\.STORAGE
*614 WORD\[8\]\.W\.BYTE\[0\]\.B\.CGAND
*615 WORD\[8\]\.W\.BYTE\[0\]\.B\.DIODE_CLK
*616 WORD\[8\]\.W\.BYTE\[0\]\.B\.SEL0INV
*617 WORD\[8\]\.W\.BYTE\[0\]\.B\.genblk1\.CG
*618 WORD\[8\]\.W\.CLKBUF
*619 WORD\[8\]\.W\.SEL0BUF
*620 WORD\[9\]\.W\.BYTE\[0\]\.B\.BIT\[0\]\.OBUF0
*621 WORD\[9\]\.W\.BYTE\[0\]\.B\.BIT\[0\]\.genblk1\.STORAGE
*622 WORD\[9\]\.W\.BYTE\[0\]\.B\.BIT\[1\]\.OBUF0
*623 WORD\[9\]\.W\.BYTE\[0\]\.B\.BIT\[1\]\.genblk1\.STORAGE
*624 WORD\[9\]\.W\.BYTE\[0\]\.B\.BIT\[2\]\.OBUF0
*625 WORD\[9\]\.W\.BYTE\[0\]\.B\.BIT\[2\]\.genblk1\.STORAGE
*626 WORD\[9\]\.W\.BYTE\[0\]\.B\.BIT\[3\]\.OBUF0
*627 WORD\[9\]\.W\.BYTE\[0\]\.B\.BIT\[3\]\.genblk1\.STORAGE
*628 WORD\[9\]\.W\.BYTE\[0\]\.B\.BIT\[4\]\.OBUF0
*629 WORD\[9\]\.W\.BYTE\[0\]\.B\.BIT\[4\]\.genblk1\.STORAGE
*630 WORD\[9\]\.W\.BYTE\[0\]\.B\.BIT\[5\]\.OBUF0
*631 WORD\[9\]\.W\.BYTE\[0\]\.B\.BIT\[5\]\.genblk1\.STORAGE
*632 WORD\[9\]\.W\.BYTE\[0\]\.B\.BIT\[6\]\.OBUF0
*633 WORD\[9\]\.W\.BYTE\[0\]\.B\.BIT\[6\]\.genblk1\.STORAGE
*634 WORD\[9\]\.W\.BYTE\[0\]\.B\.BIT\[7\]\.OBUF0
*635 WORD\[9\]\.W\.BYTE\[0\]\.B\.BIT\[7\]\.genblk1\.STORAGE
*636 WORD\[9\]\.W\.BYTE\[0\]\.B\.CGAND
*637 WORD\[9\]\.W\.BYTE\[0\]\.B\.DIODE_CLK
*638 WORD\[9\]\.W\.BYTE\[0\]\.B\.SEL0INV
*639 WORD\[9\]\.W\.BYTE\[0\]\.B\.genblk1\.CG
*640 WORD\[9\]\.W\.CLKBUF
*641 WORD\[9\]\.W\.SEL0BUF
*642 fill_0_0
*643 fill_10_0
*644 fill_10_1
*645 fill_10_2
*646 fill_10_3
*647 fill_10_4
*648 fill_11_0
*649 fill_11_1
*650 fill_11_2
*651 fill_11_3
*652 fill_11_4
*653 fill_12_0
*654 fill_12_1
*655 fill_12_2
*656 fill_12_3
*657 fill_12_4
*658 fill_13_0
*659 fill_13_1
*660 fill_13_2
*661 fill_13_3
*662 fill_13_4
*663 fill_14_0
*664 fill_14_1
*665 fill_14_2
*666 fill_14_3
*667 fill_14_4
*668 fill_14_5
*669 fill_15_0
*670 fill_15_1
*671 fill_15_2
*672 fill_15_3
*673 fill_15_4
*674 fill_1_0
*675 fill_1_1
*676 fill_2_0
*677 fill_2_1
*678 fill_2_2
*679 fill_2_3
*680 fill_2_4
*681 fill_3_0
*682 fill_3_1
*683 fill_3_2
*684 fill_3_3
*685 fill_3_4
*686 fill_4_0
*687 fill_4_1
*688 fill_4_2
*689 fill_4_3
*690 fill_4_4
*691 fill_5_0
*692 fill_5_1
*693 fill_5_2
*694 fill_5_3
*695 fill_5_4
*696 fill_6_0
*697 fill_6_1
*698 fill_6_2
*699 fill_6_3
*700 fill_6_4
*701 fill_6_5
*702 fill_7_0
*703 fill_7_1
*704 fill_7_2
*705 fill_7_3
*706 fill_7_4
*707 fill_8_0
*708 fill_8_1
*709 fill_8_2
*710 fill_8_3
*711 fill_8_4
*712 fill_9_0
*713 fill_9_1
*714 fill_9_2
*715 fill_9_3
*716 tap_0_0
*717 tap_0_1
*718 tap_0_2
*719 tap_0_3
*720 tap_0_4
*721 tap_0_5
*722 tap_0_6
*723 tap_0_7
*724 tap_0_8
*725 tap_10_0
*726 tap_10_1
*727 tap_10_2
*728 tap_10_3
*729 tap_10_4
*730 tap_10_5
*731 tap_10_6
*732 tap_10_7
*733 tap_10_8
*734 tap_11_0
*735 tap_11_1
*736 tap_11_2
*737 tap_11_3
*738 tap_11_4
*739 tap_11_5
*740 tap_11_6
*741 tap_11_7
*742 tap_11_8
*743 tap_11_9
*744 tap_12_0