*SPEF "ieee 1481-1999"
*DESIGN "I2C"
*DATE "15:55:02 Wednesday March 27, 2024"
*VENDOR "The OpenROAD Project"
*PROGRAM "OpenROAD"
*VERSION "0889970d1790a2617e69f253221b8bd7626e51dc"
*DESIGN_FLOW "NAME_SCOPE LOCAL" "PIN_CAP NONE"
*DIVIDER /
*DELIMITER :
*BUS_DELIMITER []
*T_UNIT 1 NS
*C_UNIT 1 PF
*R_UNIT 1 OHM
*L_UNIT 1 HENRY

*NAME_MAP
*1 PADDR[0]
*2 PADDR[1]
*3 PADDR[2]
*4 PADDR[3]
*5 PADDR[4]
*6 PCLK
*7 PENABLE
*8 PRDATA[0]
*9 PRDATA[1]
*10 PRDATA[2]
*11 PRDATA[3]
*12 PRDATA[4]
*13 PRDATA[5]
*14 PRDATA[6]
*15 PRDATA[7]
*16 PREADY
*17 PRESETn
*18 PSEL
*19 PWDATA[0]
*20 PWDATA[1]
*21 PWDATA[2]
*22 PWDATA[3]
*23 PWDATA[4]
*24 PWDATA[5]
*25 PWDATA[6]
*26 PWDATA[7]
*27 PWRITE
*30 clk
*31 ena
*32 rst_n
*33 ui_in[0]
*34 ui_in[1]
*35 ui_in[2]
*36 ui_in[3]
*37 ui_in[4]
*38 ui_in[5]
*39 ui_in[6]
*40 ui_in[7]
*41 uio_in[0]
*42 uio_in[1]
*43 uio_in[2]
*44 uio_in[3]
*45 uio_in[4]
*46 uio_in[5]
*47 uio_in[6]
*48 uio_in[7]
*49 uio_oe[0]
*50 uio_oe[1]
*51 uio_oe[2]
*52 uio_oe[3]
*53 uio_oe[4]
*54 uio_oe[5]
*55 uio_oe[6]
*56 uio_oe[7]
*57 uio_out[0]
*58 uio_out[1]
*59 uio_out[2]
*60 uio_out[3]
*61 uio_out[4]
*62 uio_out[5]
*63 uio_out[6]
*64 uio_out[7]
*65 uo_out[0]
*66 uo_out[1]
*67 uo_out[2]
*68 uo_out[3]
*69 uo_out[4]
*70 uo_out[5]
*71 uo_out[6]
*72 uo_out[7]
*73 _000_
*74 _001_
*75 _002_
*76 _003_
*77 _004_
*78 _005_
*79 _006_
*80 _007_
*81 _008_
*82 _009_
*83 _010_
*84 _011_
*85 _012_
*86 _013_
*87 _014_
*88 _015_
*89 _016_
*90 _017_
*91 _018_
*92 _019_
*93 _020_
*94 _021_
*95 _022_
*96 _023_
*97 _024_
*98 _025_
*99 _026_
*100 _027_
*101 _028_
*102 _029_
*103 _030_
*104 _031_
*105 _032_
*106 _033_
*107 _034_
*108 _035_
*109 _036_
*110 _037_
*111 _038_
*112 _039_
*113 _040_
*114 _041_
*115 _042_
*116 _043_
*117 _044_
*118 _045_
*119 _046_
*120 _047_
*121 _048_
*122 _049_
*123 _050_
*124 _051_
*125 _052_
*126 _053_
*127 _054_
*128 _055_
*129 _056_
*130 _057_
*131 _058_
*132 _059_
*133 _060_
*134 _061_
*135 _062_
*136 _063_
*137 _064_
*138 _065_
*139 _066_
*140 _067_
*141 _068_
*142 _069_
*143 _070_
*144 _071_
*145 _072_
*146 _073_
*147 _074_
*148 _075_
*149 _076_
*150 _077_
*151 _078_
*152 _079_
*153 _080_
*154 _081_
*155 _082_
*156 _083_
*157 _084_
*158 _085_
*159 _086_
*160 _087_
*161 _088_
*162 _089_
*163 _090_
*164 _091_
*165 _092_
*166 _093_
*167 _094_
*168 _095_
*169 _096_
*170 _097_
*171 _098_
*172 _099_
*173 _100_
*174 _101_
*175 _102_
*176 _103_
*177 _104_
*178 _105_
*179 _106_
*180 _107_
*181 _108_
*182 _109_
*183 _110_
*184 _111_
*185 _112_
*186 _113_
*187 _114_
*188 _115_
*189 _116_
*190 _117_
*191 _118_
*192 _119_
*193 _120_
*194 _121_
*195 _122_
*196 _123_
*197 _124_
*198 _125_
*199 _126_
*200 _127_
*201 _128_
*202 _129_
*203 _130_
*204 _131_
*205 _132_
*206 _133_
*207 _134_
*208 _135_
*209 _136_
*210 _137_
*211 _138_
*212 _139_
*213 _140_
*214 _141_
*215 _142_
*216 _143_
*217 _144_
*218 _145_
*219 _146_
*220 _147_
*221 _148_
*222 _149_
*223 _150_
*224 _151_
*225 _152_
*226 _153_
*227 _154_
*228 _155_
*229 _156_
*230 _157_
*231 _158_
*232 _159_
*233 _160_
*234 _161_
*235 _162_
*236 _163_
*237 _164_
*238 _165_
*239 _166_
*240 _167_
*241 _168_
*242 _169_
*243 _170_
*244 _171_
*245 _172_
*246 _173_
*247 _174_
*248 _175_
*249 _176_
*250 _177_
*251 _178_
*252 _179_
*253 _180_
*254 _181_
*255 _182_
*256 _183_
*257 _184_
*258 _185_
*259 _186_
*260 _187_
*261 _188_
*262 _189_
*263 _190_
*264 _191_
*265 _192_
*266 _193_
*267 _194_
*268 _195_
*269 _196_
*270 _197_
*271 _198_
*272 _199_
*273 _200_
*274 _201_
*275 _202_
*276 _203_
*277 _204_
*278 _205_
*279 _206_
*280 _207_
*281 _208_
*282 _209_
*283 _210_
*284 _211_
*285 _212_
*286 _213_
*287 _214_
*288 _215_
*289 _216_
*290 _217_
*291 _218_
*292 _219_
*293 adapter\.adapter\.address\[0\]
*294 adapter\.adapter\.address\[1\]
*295 adapter\.adapter\.address\[2\]
*296 adapter\.adapter\.address\[3\]
*297 adapter\.adapter\.address\[4\]
*298 adapter\.adapter\.apb\.bus_state\[0\]
*299 adapter\.adapter\.apb\.bus_write
*300 adapter\.adapter\.apb\.out_data\[0\]
*301 adapter\.adapter\.apb\.out_data\[1\]
*302 adapter\.adapter\.apb\.out_data\[2\]
*303 adapter\.adapter\.apb\.out_data\[3\]
*304 adapter\.adapter\.apb\.out_data\[4\]
*305 adapter\.adapter\.apb\.out_data\[5\]
*306 adapter\.adapter\.apb\.out_data\[6\]
*307 adapter\.adapter\.apb\.out_data\[7\]
*308 adapter\.adapter\.apb\.out_valid
*309 adapter\.adapter\.got_first_byte
*310 adapter\.adapter\.previous_busy
*311 adapter\.adapter\.previous_got_first_byte
*312 adapter\.i2cs\.bit_count_reg\[0\]
*313 adapter\.i2cs\.bit_count_reg\[1\]
*314 adapter\.i2cs\.bit_count_reg\[2\]
*315 adapter\.i2cs\.bit_count_reg\[3\]
*316 adapter\.i2cs\.busy_reg
*317 adapter\.i2cs\.data_out_reg_valid_reg
*318 adapter\.i2cs\.data_reg\[0\]
*319 adapter\.i2cs\.data_reg\[1\]
*320 adapter\.i2cs\.data_reg\[2\]
*321 adapter\.i2cs\.data_reg\[3\]
*322 adapter\.i2cs\.data_reg\[4\]
*323 adapter\.i2cs\.data_reg\[5\]
*324 adapter\.i2cs\.data_reg\[6\]
*325 adapter\.i2cs\.data_reg\[7\]
*326 adapter\.i2cs\.data_valid_reg
*327 adapter\.i2cs\.last_scl_i_reg
*328 adapter\.i2cs\.last_sda_i_reg
*329 adapter\.i2cs\.m_axis_data_tdata_reg\[0\]
*330 adapter\.i2cs\.m_axis_data_tdata_reg\[1\]
*331 adapter\.i2cs\.m_axis_data_tdata_reg\[2\]
*332 adapter\.i2cs\.m_axis_data_tdata_reg\[3\]
*333 adapter\.i2cs\.m_axis_data_tdata_reg\[4\]
*334 adapter\.i2cs\.m_axis_data_tdata_reg\[5\]
*335 adapter\.i2cs\.m_axis_data_tdata_reg\[6\]
*336 adapter\.i2cs\.m_axis_data_tdata_reg\[7\]
*337 adapter\.i2cs\.m_axis_data_tvalid_reg
*338 adapter\.i2cs\.mode_read_reg
*339 adapter\.i2cs\.s_axis_data_tready_reg
*340 adapter\.i2cs\.scl_i_filter\[0\]
*341 adapter\.i2cs\.scl_i_filter\[1\]
*342 adapter\.i2cs\.scl_i_filter\[2\]
*343 adapter\.i2cs\.scl_i_filter\[3\]
*344 adapter\.i2cs\.scl_i_reg
*345 adapter\.i2cs\.scl_o_reg
*346 adapter\.i2cs\.sda_i_filter\[0\]
*347 adapter\.i2cs\.sda_i_filter\[1\]
*348 adapter\.i2cs\.sda_i_filter\[2\]
*349 adapter\.i2cs\.sda_i_filter\[3\]
*350 adapter\.i2cs\.sda_i_reg
*351 adapter\.i2cs\.sda_o_reg
*352 adapter\.i2cs\.state_reg\[0\]
*353 adapter\.i2cs\.state_reg\[1\]
*354 adapter\.i2cs\.state_reg\[2\]
*355 clknet_0_clk
*356 clknet_3_0__leaf_clk
*357 clknet_3_1__leaf_clk
*358 clknet_3_2__leaf_clk
*359 clknet_3_3__leaf_clk
*360 clknet_3_4__leaf_clk
*361 clknet_3_5__leaf_clk
*362 clknet_3_6__leaf_clk
*363 clknet_3_7__leaf_clk
*364 net1
*365 net10
*366 net100
*367 net101
*368 net102
*369 net103
*370 net104
*371 net105
*372 net106
*373 net107
*374 net108
*375 net109
*376 net11
*377 net110
*378 net111
*379 net112
*380 net113
*381 net114
*382 net115
*383 net116
*384 net117
*385 net118
*386 net119
*387 net12
*388 net120
*389 net121
*390 net122
*391 net123
*392 net124
*393 net125
*394 net126
*395 net127
*396 net13
*397 net14
*398 net15
*399 net16
*400 net17
*401 net18
*402 net19
*403 net2
*404 net20
*405 net21
*406 net22
*407 net23
*408 net24
*409 net25
*410 net26
*411 net27
*412 net28
*413 net29
*414 net3
*415 net30
*416 net31
*417 net32
*418 net33
*419 net34
*420 net35
*421 net36
*422 net37
*423 net38
*424 net39
*425 net4
*426 net40
*427 net41
*428 net42
*429 net43
*430 net44
*431 net45
*432 net46
*433 net47
*434 net48
*435 net49
*436 net5
*437 net50
*438 net51
*439 net52
*440 net53
*441 net54
*442 net55
*443 net56
*444 net57
*445 net58
*446 net59
*447 net6
*448 net60
*449 net61
*450 net62
*451 net63
*452 net64
*453 net65
*454 net66
*455 net67
*456 net68
*457 net69
*458 net7
*459 net70
*460 net71
*461 net72
*462 net73
*463 net74
*464 net75
*465 net76
*466 net77
*467 net78
*468 net79
*469 net8
*470 net80
*471 net81
*472 net82
*473 net83
*474 net84
*475 net85
*476 net86
*477 net87
*478 net88
*479 net89
*480 net9
*481 net90
*482 net91
*483 net92
*484 net93
*485 net94
*486 net95
*487 net96
*488 net97
*489 net98
*490 net99
*491 ANTENNA_1
*492 ANTENNA_10
*493 ANTENNA_11
*494 ANTENNA_2
*495 ANTENNA_3
*496 ANTENNA_4
*497 ANTENNA_5
*498 ANTENNA_6
*499 ANTENNA_7
*500 ANTENNA_8
*501 ANTENNA_9
*502 FILLER_0_0_102
*503 FILLER_0_0_177
*504 FILLER_0_0_202
*505 FILLER_0_0_225
*506 FILLER_0_0_278
*507 FILLER_0_0_3
*508 FILLER_0_0_306
*509 FILLER_0_0_334
*510 FILLER_0_0_34
*511 FILLER_0_0_57
*512 FILLER_0_0_85
*513 FILLER_0_10_12
*514 FILLER_0_10_148
*515 FILLER_0_10_161
*516 FILLER_0_10_17
*517 FILLER_0_10_171
*518 FILLER_0_10_194
*519 FILLER_0_10_197
*520 FILLER_0_10_214
*521 FILLER_0_10_22
*522 FILLER_0_10_29
*523 FILLER_0_10_3
*524 FILLER_0_10_332
*525 FILLER_0_10_65
*526 FILLER_0_10_79
*527 FILLER_0_10_85
*528 FILLER_0_11_101
*529 FILLER_0_11_158
*530 FILLER_0_11_163
*531 FILLER_0_11_169
*532 FILLER_0_11_175
*533 FILLER_0_11_192
*534 FILLER_0_11_197
*535 FILLER_0_11_207
*536 FILLER_0_11_251
*537 FILLER_0_11_29
*538 FILLER_0_11_3
*539 FILLER_0_11_305
*540 FILLER_0_1_150
*541 FILLER_0_1_185
*542 FILLER_0_1_225
*543 FILLER_0_1_279
*544 FILLER_0_1_46
*545 FILLER_0_1_57
*546 FILLER_0_1_8
*547 FILLER_0_1_95
*548 FILLER_0_2_146
*549 FILLER_0_2_179
*550 FILLER_0_2_18
*551 FILLER_0_2_205
*552 FILLER_0_2_240
*553 FILLER_0_2_3
*554 FILLER_0_2_306
*555 FILLER_0_2_325
*556 FILLER_0_2_334
*557 FILLER_0_2_45
*558 FILLER_0_3_13
*559 FILLER_0_3_261
*560 FILLER_0_3_279
*561 FILLER_0_3_3
*562 FILLER_0_3_54
*563 FILLER_0_3_9
*564 FILLER_0_3_94
*565 FILLER_0_4_125
*566 FILLER_0_4_168
*567 FILLER_0_4_178
*568 FILLER_0_4_227
*569 FILLER_0_4_243
*570 FILLER_0_4_277
*571 FILLER_0_4_3
*572 FILLER_0_4_329
*573 FILLER_0_4_44
*574 FILLER_0_5_137
*575 FILLER_0_5_162
*576 FILLER_0_5_173
*577 FILLER_0_5_184
*578 FILLER_0_5_192
*579 FILLER_0_5_201
*580 FILLER_0_5_225
*581 FILLER_0_5_250
*582 FILLER_0_5_266
*583 FILLER_0_5_3
*584 FILLER_0_5_300
*585 FILLER_0_5_321
*586 FILLER_0_5_333
*587 FILLER_0_5_34
*588 FILLER_0_5_57
*589 FILLER_0_6_135
*590 FILLER_0_6_146
*591 FILLER_0_6_158
*592 FILLER_0_6_174
*593 FILLER_0_6_195
*594 FILLER_0_6_212
*595 FILLER_0_6_270
*596 FILLER_0_6_306
*597 FILLER_0_6_323
*598 FILLER_0_7_157
*599 FILLER_0_7_169
*600 FILLER_0_7_216
*601 FILLER_0_7_245
*602 FILLER_0_7_249
*603 FILLER_0_7_281
*604 FILLER_0_7_330
*605 FILLER_0_7_334
*606 FILLER_0_7_57
*607 FILLER_0_7_62
*608 FILLER_0_8_111
*609 FILLER_0_8_168
*610 FILLER_0_8_195
*611 FILLER_0_8_210
*612 FILLER_0_8_280
*613 FILLER_0_8_29
*614 FILLER_0_8_3
*615 FILLER_0_8_305
*616 FILLER_0_8_325
*617 FILLER_0_8_85
*618 FILLER_0_9_154
*619 FILLER_0_9_164
*620 FILLER_0_9_169
*621 FILLER_0_9_17
*622 FILLER_0_9_176
*623 FILLER_0_9_195
*624 FILLER_0_9_225
*625 FILLER_0_9_235
*626 FILLER_0_9_276
*627 FILLER_0_9_334
*628 PHY_EDGE_ROW_0_Left_12
*629 PHY_EDGE_ROW_0_Right_0
*630 PHY_EDGE_ROW_10_Left_22
*631 PHY_EDGE_ROW_10_Right_10
*632 PHY_EDGE_ROW_11_Left_23
*633 PHY_EDGE_ROW_11_Right_11
*634 PHY_EDGE_ROW_1_Left_13
*635 PHY_EDGE_ROW_1_Right_1
*636 PHY_EDGE_ROW_2_Left_14
*637 PHY_EDGE_ROW_2_Right_2
*638 PHY_EDGE_ROW_3_Left_15
*639 PHY_EDGE_ROW_3_Right_3
*640 PHY_EDGE_ROW_4_Left_16
*641 PHY_EDGE_ROW_4_Right_4
*642 PHY_EDGE_ROW_5_Left_17
*643 PHY_EDGE_ROW_5_Right_5
*644 PHY_EDGE_ROW_6_Left_18
*645 PHY_EDGE_ROW_6_Right_6
*646 PHY_EDGE_ROW_7_Left_19
*647 PHY_EDGE_ROW_7_Right_7
*648 PHY_EDGE_ROW_8_Left_20
*649 PHY_EDGE_ROW_8_Right_8
*650 PHY_EDGE_ROW_9_Left_21
*651 PHY_EDGE_ROW_9_Right_9
*652 TAP_TAPCELL_ROW_0_24
*653 TAP_TAPCELL_ROW_0_25
*654 TAP_TAPCELL_ROW_0_26
*655 TAP_TAPCELL_ROW_0_27
*656 TAP_TAPCELL_ROW_0_28
*657 TAP_TAPCELL_ROW_0_29
*658 TAP_TAPCELL_ROW_0_30
*659 TAP_TAPCELL_ROW_0_31
*660 TAP_TAPCELL_ROW_0_32
*661 TAP_TAPCELL_ROW_0_33
*662 TAP_TAPCELL_ROW_0_34
*663 TAP_TAPCELL_ROW_10_84
*664 TAP_TAPCELL_ROW_10_85
*665 TAP_TAPCELL_ROW_10_86
*666 TAP_TAPCELL_ROW_10_87
*667 TAP_TAPCELL_ROW_10_88
*668 TAP_TAPCELL_ROW_10_89
*669 TAP_TAPCELL_ROW_11_100
*670 TAP_TAPCELL_ROW_11_90
*671 TAP_TAPCELL_ROW_11_91
*672 TAP_TAPCELL_ROW_11_92
*673 TAP_TAPCELL_ROW_11_93
*674 TAP_TAPCELL_ROW_11_94
*675 TAP_TAPCELL_ROW_11_95
*676 TAP_TAPCELL_ROW_11_96
*677 TAP_TAPCELL_ROW_11_97
*678 TAP_TAPCELL_ROW_11_98
*679 TAP_TAPCELL_ROW_11_99
*680 TAP_TAPCELL_ROW_1_35
*681 TAP_TAPCELL_ROW_1_36
*682 TAP_TAPCELL_ROW_1_37
*683 TAP_TAPCELL_ROW_1_38
*684 TAP_TAPCELL_ROW_1_39
*685 TAP_TAPCELL_ROW_2_40
*686 TAP_TAPCELL_ROW_2_41
*687 TAP_TAPCELL_ROW_2_42
*688 TAP_TAPCELL_ROW_2_43
*689 TAP_TAPCELL_ROW_2_44
*690 TAP_TAPCELL_ROW_2_45
*691 TAP_TAPCELL_ROW_3_46
*692 TAP_TAPCELL_ROW_3_47
*693 TAP_TAPCELL_ROW_3_48
*694 TAP_TAPCELL_ROW_3_49
*695 TAP_TAPCELL_ROW_3_50
*696 TAP_TAPCELL_ROW_4_51
*697 TAP_TAPCELL_ROW_4_52
*698 TAP_TAPCELL_ROW_4_53
*699 TAP_TAPCELL_ROW_4_54
*700 TAP_TAPCELL_ROW_4_55
*701 TAP_TAPCELL_ROW_4_56
*702 TAP_TAPCELL_ROW_5_57
*703 TAP_TAPCELL_ROW_5_58
*704 TAP_TAPCELL_ROW_5_59
*705 TAP_TAPCELL_ROW_5_60
*706 TAP_TAPCELL_ROW_5_61
*707 TAP_TAPCELL_ROW_6_62
*708 TAP_TAPCELL_ROW_6_63
*709 TAP_TAPCELL_ROW_6_64
*710 TAP_TAPCELL_ROW_6_65
*711 TAP_TAPCELL_ROW_6_66
*712 TAP_TAPCELL_ROW_6_67
*713 TAP_TAPCELL_ROW_7_68
*714 TAP_TAPCELL_ROW_7_69
*715 TAP_TAPCELL_ROW_7_70
*716 TAP_TAPCELL_ROW_7_71
*717 TAP_TAPCELL_ROW_7_72
*718 TAP_TAPCELL_ROW_8_73
*719 TAP_TAPCELL_ROW_8_74
*720 TAP_TAPCELL_ROW_8_75
*721 TAP_TAPCELL_ROW_8_76
*722 TAP_TAPCELL_ROW_8_77
*723 TAP_TAPCELL_ROW_8_78
*724 TAP_TAPCELL_ROW_9_79
*725 TAP_TAPCELL_ROW_9_80
*726 TAP_TAPCELL_ROW_9_81
*727 TAP_TAPCELL_ROW_9_82
*728 TAP_TAPCELL_ROW_9_83
*729 _220_
*730 _221_
*731 _222_
*732 _223_
*733 _224_
*734 _225_
*735 _226_
*736 _227_
*737 _228_
*738 _229_
*739 _230_
*740 _231_
*741 _232_
*742 _233_
*743 _234_
*744 _235_
*745 _236_
*746 _237_
*747 _238_
*748 _239_
*749 _240_
*750 _241_
*751 _242_
*752 _243_
*753 _244_
*754 _245_
*755 _246_
*756 _247_
*757 _248_
*758 _249_
*759 _250_
*760 _251_
*761 _252_
*762 _253_
*763 _254_
*764 _255_
*765 _256_
*766 _257_
*767 _258_
*768 _259_
*769 _260_
*770 _261_
*771 _262_
*772 _263_
*773 _264_
*774 _265_
*775 _266_
*776 _267_
*777 _268_
*778 _269_
*779 _270_
*780 _271_
*781 _272_
*782 _273_
*783 _274_
*784 _275_
*785 _276_
*786 _277_
*787 _278_
*788 _279_
*789 _280_
*790 _281_
*791 _282_
*792 _283_
*793 _284_
*794 _285_
*795 _286_
*796 _287_
*797 _288_
*798 _289_
*799 _290_
*800 _291_
*801 _292_
*802 _293_
*803 _294_
*804 _295_
*805 _296_
*806 _297_
*807 _298_
*808 _299_
*809 _300_
*810 _301_
*811 _302_
*812 _303_
*813 _304_
*814 _305_
*815 _306_
*816 _307_
*817 _308_
*818 _309_
*819 _310_
*820 _311_
*821 _312_
*822 _313_
*823 _314_
*824 _315_
*825 _316_
*826 _317_
*827 _318_
*828 _319_
*829 _320_
*830 _321_
*831 _322_
*832 _323_
*833 _324_
*834 _325_
*835 _326_
*836 _327_
*837 _328_
*838 _329_
*839 _330_
*840 _331_
*841 _332_
*842 _333_
*843 _334_
*844 _335_
*845 _336_
*846 _337_
*847 _338_
*848 _339_
*849 _340_
*850 _341_
*851 _342_
*852 _343_
*853 _344_
*854 _345_
*855 _346_
*856 _347_
*857 _348_
*858 _349_
*859 _350_
*860 _351_
*861 _352_
*862 _353_
*863 _354_
*864 _355_
*865 _356_
*866 _357_
*867 _358_
*868 _359_
*869 _360_
*870 _361_
*871 _362_
*872 _363_
*873 _364_
*874 _365_
*875 _366_
*876 _367_
*877 _368_
*878 _369_
*879 _370_
*880 _371_
*881 _372_
*882 _373_
*883 _374_
*884 _375_
*885 _376_
*886 _377_
*887 _378_
*888 _379_
*889 _380_
*890 _381_
*891 _382_
*892 _383_
*893 _384_
*894 _385_
*895 _386_
*896 _387_
*897 _388_
*898 _389_
*899 _390_
*900 _391_
*901 _392_
*902 _393_
*903 _394_
*904 _395_
*905 _396_
*906 _397_
*907 _398_
*908 _399_
*909 _400_
*910 _401_
*911 _402_
*912 _403_
*913 _404_
*914 _405_
*915 _406_
*916 _407_
*917 _408_
*918 _409_
*919 _410_
*920 _411_
*921 _412_
*922 _413_
*923 _414_
*924 _415_
*925 _416_
*926 _417_
*927 _418_
*928 _419_
*929 _420_
*930 _421_
*931 _422_
*932 _423_
*933 _424_
*934 _425_
*935 _426_
*936 _427_
*937 _428_
*938 _429_
*939 _430_
*940 _431_
*941 _432_
*942 _433_
*943 _434_
*944 _435_
*945 _436_
*946 _437_
*947 _438_
*948 _439_
*949 _440_
*950 _441_
*951 _442_
*952 _443_
*953 _444_
*954 _445_
*955 _446_
*956 _447_
*957 _448_
*958 _449_
*959 _450_
*960 _451_
*961 _452_
*962 _453_
*963 _454_
*964 _455_
*965 _456_
*966 _457_
*967 _458_
*968 _459_
*969 _460_
*970 _461_
*971 _462_
*972 _463_
*973 _464_
*974 _465_
*975 _466_
*976 _467_
*977 _468_
*978 _469_
*979 _470_
*980 _471_
*981 _472_
*982 _473_
*983 _474_
*984 _475_
*985 _476_
*986 _477_
*987 _478_
*988 _479_
*989 _480_
*990 _481_
*991 _482_
*992 _483_
*993 _484_
*994 _485_
*995 _486_
*996 _487_
*997 _488_
*998 _489_
*999 _490_
*1000 _491_
*1001 _492_
*1002 _493_
*1003 _494_
*1004 _495_
*1005 _496_
*1006 _497_
*1007 _498_
*1008 _499_
*1009 _500_
*1010 _501_
*1011 _502_
*1012 _503_
*1013 _504_
*1014 _505_
*1015 _506_
*1016 _507_
*1017 _508_
*1018 _509_
*1019 _510_
*1020 _511_
*1021 _512_
*1022 _513_
*1023 _514_
*1024 _515_
*1025 _516_
*1026 _517_
*1027 _518_
*1028 _519_
*1029 _520_
*1030 _521_
*1031 _522_
*1032 _522__47
*1033 _523_
*1034 _523__48
*1035 _524_
*1036 _524__49
*1037 _525_
*1038 _525__50
*1039 _526_
*1040 _526__51
*1041 _527_
*1042 _527__52
*1043 _528_
*1044 _528__53
*1045 _529_
*1046 _529__54
*1047 _530_
*1048 _531_
*1049 _532_
*1050 _532__55
*1051 _533_
*1052 _533__56
*1053 _534_
*1054 _534__57
*1055 _535_
*1056 _535__58
*1057 _536_
*1058 _536__59
*1059 _537_
*1060 _537__60
*1061 _538_
*1062 _538__61
*1063 _539_
*1064 _539__62
*1065 _540_
*1066 _540__63
*1067 _541_
*1068 _541__64
*1069 _542_
*1070 _542__65
*1071 _543_
*1072 _543__66
*1073 clkbuf_0_clk
*1074 clkbuf_3_0__f_clk
*1075 clkbuf_3_1__f_clk
*1076 clkbuf_3_2__f_clk
*1077 clkbuf_3_3__f_clk
*1078 clkbuf_3_4__f_clk
*1079 clkbuf_3_5__f_clk
*1080 clkbuf_3_6__f_clk
*1081 clkbuf_3_7__f_clk
*1082 fanout35
*1083 fanout36
*1084 fanout38
*1085 fanout39
*1086 fanout40
*1087 fanout41
*1088 fanout42
*1089 fanout43
*1090 fanout44
*1091 fanout45
*1092 fanout46
*1093 hold1
*1094 hold10
*1095 hold11
*1096 hold12
*1097 hold13
*1098 hold14
*1099 hold15
*1100 hold16
*1101 hold17
*1102 hold18
*1103 hold19
*1104 hold2
*1105 hold20
*1106 hold21
*1107 hold22
*1108 hold23
*1109 hold24
*1110 hold25
*1111 hold26
*1112 hold27
*1113 hold28
*1114 hold29
*1115 hold3
*1116 hold30
*1117 hold31
*1118 hold32
*1119 hold33
*1120 hold34
*1121 hold35
*1122 hold36
*1123 hold37
*1124 hold38
*1125 hold39
*1126 hold4
*1127 hold40
*1128 hold41
*1129 hold42
*1130 hold43
*1131 hold44
*1132 hold45
*1133 hold46
*1134 hold47
*1135 hold48
*1136 hold49
*1137 hold5
*1138 hold50
*1139 hold51
*1140 hold52
*1141 hold53
*1142 hold54
*1143 hold55
*1144 hold56
*1145 hold57
*1146 hold58
*1147 hold59
*1148 hold6
*1149 hold60
*1150 hold61
*1151 hold7
*1152 hold8
*1153 hold9
*1154 input1
*1155 input10
*1156 input11
*1157 input12
*1158 input2
*1159 input3
*1160 input4
*1161 input5
*1162 input6
*1163 input7
*1164 input8
*1165 input9
*1166 max_cap37
*1167 output13
*1168 output14
*1169 output15
*1170 output16
*1171 output17
*1172 output18
*1173 output19
*1174 output20
*1175 output21
*1176 output22
*1177 output23
*1178 output24
*1179 output25
*1180 output26
*1181 output27
*1182 output28
*1183 output29
*1184 output30
*1185 output31
*1186 output32
*1187 output33
*1188 output34

*PORTS
PADDR[0] O
PADDR[1] O
PADDR[2] O
PADDR[3] O
PADDR[4] O
PCLK O
PENABLE O
PRDATA[0] I
PRDATA[1] I
PRDATA[2] I
PRDATA[3] I
PRDATA[4] I
PRDATA[5] I
PRDATA[6] I
PRDATA[7] I
PREADY I
PRESETn O
PSEL O
PWDATA[0] O
PWDATA[1] O
PWDATA[2] O
PWDATA[3] O
PWDATA[4] O
PWDATA[5] O
PWDATA[6] O
PWDATA[7] O
PWRITE O
clk I
ena I
rst_n I
ui_in[0] I
ui_in[1] I
ui_in[2] I
ui_in[3] I
ui_in[4] I
ui_in[5] I
ui_in[6] I
ui_in[7] I
uio_in[0] I
uio_in[1] I
uio_in[2] I
uio_in[3] I
uio_in[4] I
uio_in[5] I
uio_in[6] I
uio_in[7] I
uio_oe[0] O
uio_oe[1] O
uio_oe[2] O
uio_oe[3] O
uio_oe[4] O
uio_oe[5] O
uio_oe[6] O
uio_oe[7] O
uio_out[0] O
uio_out[1] O
uio_out[2] O
uio_out[3] O
uio_out[4] O
uio_out[5] O
uio_out[6] O
uio_out[7] O
uo_out[0] O
uo_out[1] O
uo_out[2] O
uo_out[3] O
uo_out[4] O
uo_out[5] O
uo_out[6] O
uo_out[7] O

*D_NET *1 0.00869459
*CONN
*P PADDR[0] O
*I *1167:X O *D sky130_fd_sc_hd__buf_2
*CAP
1 PADDR[0] 0.00196053
2 *1167:X 0.00196053
3 PADDR[0] PADDR[1] 3.54923e-05
4 PADDR[0] PADDR[2] 0.00167891
5 PADDR[0] PCLK 0.000462113
6 PADDR[0] PWDATA[2] 2.24884e-05
7 PADDR[0] *809:B1 0.000332211
8 PADDR[0] *818:B1 0
9 PADDR[0] *822:B2 0.000681007
10 PADDR[0] *827:C 0.00019448
11 PADDR[0] *827:D 6.66439e-05
12 PADDR[0] *833:A 0.000338351
13 PADDR[0] *969:D 0
14 PADDR[0] *1081:A 4.63464e-05
15 PADDR[0] *1170:A 0.000197977
16 PADDR[0] *1172:A 2.6949e-05
17 PADDR[0] *201:18 0.000101723
18 PADDR[0] *207:30 0.000156586
19 PADDR[0] *222:28 0.000301268
20 PADDR[0] *361:16 4.038e-06
21 PADDR[0] *398:16 0.000126947
*RES
1 *1167:X PADDR[0] 48.1153 
*END

*D_NET *2 0.00606545
*CONN
*P PADDR[1] O
*I *1168:X O *D sky130_fd_sc_hd__buf_2
*CAP
1 PADDR[1] 0.000159608
2 *1168:X 0.00104769
3 *2:18 0.00120729
4 PADDR[1] PADDR[2] 0
5 PADDR[1] PWDATA[2] 0.00014644
6 *2:18 PWDATA[2] 0.000132088
7 *2:18 *820:A1 9.41642e-05
8 *2:18 *837:B1 0.000346384
9 *2:18 *969:D 0
10 *2:18 *89:18 3.14078e-05
11 *2:18 *210:31 3.377e-05
12 *2:18 *211:42 0.00027289
13 *2:18 *211:59 0.000622874
14 *2:18 *396:44 8.75067e-05
15 *2:18 *396:63 0.000560732
16 *2:18 *397:22 1.90936e-05
17 *2:18 *408:30 0.00126802
18 PADDR[0] PADDR[1] 3.54923e-05
*RES
1 *1168:X *2:18 48.2018 
2 *2:18 PADDR[1] 3.95833 
*END

*D_NET *3 0.00822399
*CONN
*P PADDR[2] O
*I *1169:X O *D sky130_fd_sc_hd__buf_2
*CAP
1 PADDR[2] 0.00269831
2 *1169:X 0.00269831
3 PADDR[2] PADDR[3] 0
4 PADDR[2] PWDATA[2] 7.6934e-05
5 PADDR[2] *738:A 0
6 PADDR[2] *808:A 0.000257976
7 PADDR[2] *822:A1_N 0.000158306
8 PADDR[2] *822:B2 8.6963e-05
9 PADDR[2] *825:B1 0.000116206
10 PADDR[2] *830:A1_N 0
11 PADDR[2] *831:A 3.14128e-05
12 PADDR[2] *831:B 3.2946e-05
13 PADDR[2] *964:D 0
14 PADDR[2] *969:CLK 7.6021e-05
15 PADDR[2] *969:D 0
16 PADDR[2] *1073:A 0
17 PADDR[2] *1123:A 0
18 PADDR[2] *1128:A 0
19 PADDR[2] *1168:A 7.61932e-05
20 PADDR[2] *1169:A 0
21 PADDR[2] *207:30 4.33002e-05
22 PADDR[2] *215:18 4.13773e-05
23 PADDR[2] *216:34 5.56388e-05
24 PADDR[2] *361:33 9.51694e-05
25 PADDR[0] PADDR[2] 0.00167891
26 PADDR[1] PADDR[2] 0
*RES
1 *1169:X PADDR[2] 46.565 
*END

*D_NET *4 0.00711693
*CONN
*P PADDR[3] O
*I *1170:X O *D sky130_fd_sc_hd__buf_2
*CAP
1 PADDR[3] 0.000240903
2 *1170:X 0.00185153
3 *4:14 0.00209243
4 PADDR[3] PADDR[4] 0
5 PADDR[3] PWDATA[2] 0.000154685
6 *4:14 PSEL 7.83659e-05
7 *4:14 PWDATA[2] 0.000132088
8 *4:14 *5:12 0.00256692
9 PADDR[2] PADDR[3] 0
*RES
1 *1170:X *4:14 49.8357 
2 *4:14 PADDR[3] 5.62451 
*END

*D_NET *5 0.00722283
*CONN
*P PADDR[4] O
*I *1171:X O *D sky130_fd_sc_hd__buf_2
*CAP
1 PADDR[4] 0.000180163
2 *1171:X 0.000729064
3 *5:12 0.000909227
4 PADDR[4] PWDATA[2] 0.00010024
5 *5:12 PSEL 0
6 *5:12 PWDATA[2] 0.000122494
7 *5:12 *408:30 0.00261472
8 PADDR[3] PADDR[4] 0
9 *4:14 *5:12 0.00256692
*RES
1 *1171:X *5:12 48.1036 
2 *5:12 PADDR[4] 9.6768 
*END

*D_NET *6 0.0015306
*CONN
*P PCLK O
*I *1172:X O *D sky130_fd_sc_hd__clkbuf_1
*CAP
1 PCLK 0.000400408
2 *1172:X 0.000400408
3 PCLK PRESETn 0.000111237
4 PCLK *1170:A 1.18064e-05
5 PCLK *1172:A 0.000144623
6 PADDR[0] PCLK 0.000462113
*RES
1 *1172:X PCLK 27.3327 
*END

*D_NET *7 0.00575339
*CONN
*P PENABLE O
*I *1173:X O *D sky130_fd_sc_hd__buf_2
*CAP
1 PENABLE 0.00146676
2 *1173:X 0.00146676
3 PENABLE PWDATA[2] 0.000768424
4 PENABLE *786:C1 0.000125717
5 PENABLE *838:C 0.000362959
6 PENABLE *839:C 0.000433166
7 PENABLE *881:A1 2.59355e-05
8 PENABLE *881:A2 1.56e-05
9 PENABLE *881:B1 5.33334e-05
10 PENABLE *995:CLK 0.000178466
11 PENABLE *1080:A 0.00010582
12 PENABLE *186:14 0
13 PENABLE *187:16 0.000120348
14 PENABLE *211:42 0
15 PENABLE *309:54 0.000413043
16 PENABLE *309:56 0.000202076
17 PENABLE *337:26 1.49769e-05
*RES
1 *1173:X PENABLE 38.7583 
*END

*D_NET *8 0.00153203
*CONN
*P PRDATA[0] I
*I *1154:A I *D sky130_fd_sc_hd__clkbuf_1
*CAP
1 PRDATA[0] 0.000564507
2 *1154:A 0.000564507
3 *1154:A *9:21 1.85818e-05
4 *1154:A *231:14 3.94975e-05
5 *1154:A *480:16 0.000344942
*RES
1 PRDATA[0] *1154:A 20.7558 
*END

*D_NET *9 0.00752739
*CONN
*P PRDATA[1] I
*I *491:DIODE I *D sky130_fd_sc_hd__diode_2
*I *1158:A I *D sky130_fd_sc_hd__clkbuf_1
*CAP
1 PRDATA[1] 0.00102356
2 *491:DIODE 0
3 *1158:A 7.06657e-05
4 *9:21 0.00109423
5 *1158:A *865:A1 0.000100261
6 *1158:A *866:B1 9.86146e-05
7 *1158:A *1150:A 8.6229e-06
8 *9:21 *866:B1 0.000488725
9 *9:21 *934:A1 0.000380778
10 *9:21 *935:S 6.17865e-05
11 *9:21 *981:D 9.49939e-05
12 *9:21 *1011:D 0.00136696
13 *9:21 *1164:A 2.14098e-05
14 *9:21 *131:22 0.000486802
15 *9:21 *231:14 0
16 *9:21 *236:45 0.00212907
17 *9:21 *367:10 8.23185e-05
18 *1154:A *9:21 1.85818e-05
*RES
1 PRDATA[1] *9:21 28.9641 
2 *9:21 *1158:A 19.9786 
3 *9:21 *491:DIODE 9.3 
*END

*D_NET *10 0.00483737
*CONN
*P PRDATA[2] I
*I *1159:A I *D sky130_fd_sc_hd__clkbuf_1
*I *494:DIODE I *D sky130_fd_sc_hd__diode_2
*CAP
1 PRDATA[2] 0.00174381
2 *1159:A 0.000143335
3 *494:DIODE 0
4 *10:19 0.000143335
5 *10:17 0.00174381
6 *1159:A *866:A1 5.62995e-05
7 *1159:A *871:A1 1.04232e-05
8 *1159:A *305:6 0
9 *10:17 *866:C1 0
10 *10:17 *1165:A 0
11 *10:17 *103:18 0.000223532
12 *10:17 *235:18 0.000710318
13 *10:17 *480:16 6.25103e-05
*RES
1 PRDATA[2] *10:17 47.606 
2 *10:17 *10:19 4.5 
3 *10:19 *494:DIODE 9.3 
4 *10:19 *1159:A 12.1036 
*END

*D_NET *11 0.0114756
*CONN
*P PRDATA[3] I
*I *1160:A I *D sky130_fd_sc_hd__clkbuf_1
*I *495:DIODE I *D sky130_fd_sc_hd__diode_2
*CAP
1 PRDATA[3] 0.00250578
2 *1160:A 0
3 *495:DIODE 3.34633e-05
4 *11:39 0.00253924
5 *495:DIODE *876:A1 5.30637e-06
6 *11:39 *764:B 0.000683779
7 *11:39 *781:D_N 0.000327516
8 *11:39 *864:B1 0.000236867
9 *11:39 *864:C1 0.00140479
10 *11:39 *868:A1 0.000118137
11 *11:39 *876:A1 1.74903e-05
12 *11:39 *904:B2 0.000204854
13 *11:39 *907:A1 3.39079e-05
14 *11:39 *912:A0 8.74441e-05
15 *11:39 *931:A0 9.87983e-06
16 *11:39 *932:A1 7.44362e-05
17 *11:39 *935:A1 0.000257571
18 *11:39 *936:A0 0
19 *11:39 *978:D 7.99696e-05
20 *11:39 *1007:D 9.95103e-05
21 *11:39 *1011:D 8.02862e-05
22 *11:39 *1049:A 4.52254e-05
23 *11:39 *1074:A 2.07728e-05
24 *11:39 *1145:A 5.33643e-05
25 *11:39 *1182:A 0.000337177
26 *11:39 *12:31 1.43548e-05
27 *11:39 *236:114 1.90936e-05
28 *11:39 *268:14 0.00020356
29 *11:39 *356:55 0
30 *11:39 *416:40 0.00186128
31 *11:39 *429:71 1.05524e-05
32 *11:39 *474:18 0
33 *11:39 *480:16 0.000109996
*RES
1 PRDATA[3] *11:39 48.7501 
2 *11:39 *495:DIODE 9.83571 
3 *11:39 *1160:A 9.3 
*END

*D_NET *12 0.00865293
*CONN
*P PRDATA[4] I
*I *496:DIODE I *D sky130_fd_sc_hd__diode_2
*I *1161:A I *D sky130_fd_sc_hd__clkbuf_1
*CAP
1 PRDATA[4] 0.00204024
2 *496:DIODE 0
3 *1161:A 0.00010388
4 *12:31 0.00214412
5 *1161:A *870:A1 9.71197e-05
6 *1161:A *445:18 9.71197e-05
7 *12:31 *865:A2 0.000141686
8 *12:31 *869:A1 6.56976e-05
9 *12:31 *870:A1 0.000164962
10 *12:31 *984:D 0.000931516
11 *12:31 *1089:A 6.30931e-05
12 *12:31 *1099:A 0.000288995
13 *12:31 *1101:A 0.000167774
14 *12:31 *1102:A 0.000118154
15 *12:31 *1162:A 0
16 *12:31 *107:24 0.000104177
17 *12:31 *141:26 0.000410202
18 *12:31 *235:18 4.64349e-05
19 *12:31 *235:85 4.14398e-05
20 *12:31 *236:97 9.34324e-05
21 *12:31 *306:24 2.72228e-05
22 *12:31 *421:38 3.78386e-05
23 *12:31 *421:40 0.000111002
24 *12:31 *421:105 0.00017435
25 *12:31 *433:22 0.000709217
26 *12:31 *445:18 0.000130419
27 *12:31 *480:16 0.000328482
28 *11:39 *12:31 1.43548e-05
*RES
1 PRDATA[4] *12:31 32.7121 
2 *12:31 *1161:A 11.4964 
3 *12:31 *496:DIODE 9.3 
*END

*D_NET *13 0.00406207
*CONN
*P PRDATA[5] I
*I *1162:A I *D sky130_fd_sc_hd__clkbuf_1
*CAP
1 PRDATA[5] 0.0011153
2 *1162:A 0.0011153
3 *1162:A *866:B1 4.00349e-05
4 *1162:A *909:A0 5.71472e-05
5 *1162:A *909:A1 0.000648637
6 *1162:A *1121:A 0.00024195
7 *1162:A *1150:A 9.60293e-05
8 *1162:A *1163:A 0
9 *1162:A *235:18 0
10 *1162:A *322:8 2.28499e-05
11 *1162:A *322:33 0.000409243
12 *1162:A *324:31 1.78353e-05
13 *1162:A *420:46 0.000221634
14 *1162:A *480:16 7.61181e-05
15 *12:31 *1162:A 0
*RES
1 PRDATA[5] *1162:A 39.2995 
*END

*D_NET *14 0.0041146
*CONN
*P PRDATA[6] I
*I *1163:A I *D sky130_fd_sc_hd__clkbuf_1
*CAP
1 PRDATA[6] 0.0010719
2 *1163:A 0.0010719
3 *1163:A *867:A1 5.25862e-06
4 *1163:A *911:S 5.33005e-05
5 *1163:A *913:A1 0
6 *1163:A *914:A0 0.000313953
7 *1163:A *914:A1 0.000281059
8 *1163:A *917:S 0.000452043
9 *1163:A *1150:A 0
10 *1163:A *1164:A 0
11 *1163:A *235:53 6.90348e-06
12 *1163:A *356:71 0.000282534
13 *1163:A *367:10 0.000260422
14 *1163:A *420:73 9.92293e-05
15 *1163:A *474:18 0.000153586
16 *1163:A *480:16 6.25103e-05
17 *1162:A *1163:A 0
*RES
1 PRDATA[6] *1163:A 38.2096 
*END

*D_NET *15 0.00567828
*CONN
*P PRDATA[7] I
*I *1164:A I *D sky130_fd_sc_hd__clkbuf_1
*CAP
1 PRDATA[7] 0.00207432
2 *1164:A 0.00207432
3 *1164:A *868:A1 5.96031e-05
4 *1164:A *912:A1 1.30747e-05
5 *1164:A *914:A0 0
6 *1164:A *916:A0 1.92789e-05
7 *1164:A *1002:CLK 1.15172e-05
8 *1164:A *1002:D 0.000146871
9 *1164:A *1048:A 1.46745e-05
10 *1164:A *1120:A 6.03413e-05
11 *1164:A *1149:A 7.99366e-05
12 *1164:A *1150:A 0
13 *1164:A *105:30 0
14 *1164:A *235:53 9.44966e-05
15 *1164:A *236:45 1.7276e-05
16 *1164:A *245:30 0.000388838
17 *1164:A *367:10 0
18 *1164:A *391:26 0.000435376
19 *1164:A *433:22 0.000145261
20 *1164:A *480:16 2.16871e-05
21 *1163:A *1164:A 0
22 *9:21 *1164:A 2.14098e-05
*RES
1 PRDATA[7] *1164:A 49.6898 
*END

*D_NET *16 0.00384237
*CONN
*P PREADY I
*I *1165:A I *D sky130_fd_sc_hd__buf_1
*CAP
1 PREADY 0.000814986
2 *1165:A 0.000814986
3 *1165:A *866:C1 0
4 *1165:A *871:A1 0
5 *1165:A *102:20 0.000958726
6 *1165:A *445:18 3.01126e-05
7 *1165:A *480:16 0.00122356
8 *10:17 *1165:A 0
*RES
1 PREADY *1165:A 34.8576 
*END

*D_NET *17 0.00205077
*CONN
*P PRESETn O
*I *1174:X O *D sky130_fd_sc_hd__buf_2
*CAP
1 PRESETn 0.000491148
2 *1174:X 0.000491148
3 PRESETn PSEL 0.000652861
4 PRESETn *833:A 6.73939e-05
5 PRESETn *1170:A 0.000221163
6 PRESETn *1174:A 1.58163e-05
7 PCLK PRESETn 0.000111237
*RES
1 *1174:X PRESETn 26.6216 
*END

*D_NET *18 0.00220142
*CONN
*P PSEL O
*I *1175:X O *D sky130_fd_sc_hd__buf_2
*CAP
1 PSEL 0.000584051
2 *1175:X 0.000584051
3 PSEL PWDATA[2] 4.97112e-05
4 PSEL *833:B 0.00017309
5 PSEL *1167:A 0
6 PSEL *215:18 0
7 PSEL *400:14 7.92879e-05
8 PRESETn PSEL 0.000652861
9 *4:14 PSEL 7.83659e-05
10 *5:12 PSEL 0
*RES
1 *1175:X PSEL 24.8617 
*END

*D_NET *19 0.00620457
*CONN
*P PWDATA[0] O
*I *1176:X O *D sky130_fd_sc_hd__buf_2
*CAP
1 PWDATA[0] 0.00153502
2 *1176:X 0.00153502
3 PWDATA[0] PWDATA[2] 1.85715e-05
4 PWDATA[0] *846:A 4.00396e-05
5 PWDATA[0] *856:B 0.000108516
6 PWDATA[0] *878:A 2.47833e-05
7 PWDATA[0] *882:A2 6.37188e-06