*SPEF "ieee 1481-1999"
*DESIGN "I2C"
*DATE "13:43:16 Friday March 29, 2024"
*VENDOR "The OpenROAD Project"
*PROGRAM "OpenROAD"
*VERSION "0889970d1790a2617e69f253221b8bd7626e51dc"
*DESIGN_FLOW "NAME_SCOPE LOCAL" "PIN_CAP NONE"
*DIVIDER /
*DELIMITER :
*BUS_DELIMITER []
*T_UNIT 1 NS
*C_UNIT 1 PF
*R_UNIT 1 OHM
*L_UNIT 1 HENRY

*NAME_MAP
*1 PADDR[0]
*2 PADDR[1]
*3 PADDR[2]
*4 PADDR[3]
*5 PADDR[4]
*6 PCLK
*7 PENABLE
*8 PRDATA[0]
*9 PRDATA[1]
*10 PRDATA[2]
*11 PRDATA[3]
*12 PRDATA[4]
*13 PRDATA[5]
*14 PRDATA[6]
*15 PRDATA[7]
*16 PREADY
*17 PRESETn
*18 PSEL
*19 PWDATA[0]
*20 PWDATA[1]
*21 PWDATA[2]
*22 PWDATA[3]
*23 PWDATA[4]
*24 PWDATA[5]
*25 PWDATA[6]
*26 PWDATA[7]
*27 PWRITE
*30 clk
*31 ena
*32 rst_n
*33 ui_in[0]
*34 ui_in[1]
*35 ui_in[2]
*36 ui_in[3]
*37 ui_in[4]
*38 ui_in[5]
*39 ui_in[6]
*40 ui_in[7]
*41 uio_in[0]
*42 uio_in[1]
*43 uio_in[2]
*44 uio_in[3]
*45 uio_in[4]
*46 uio_in[5]
*47 uio_in[6]
*48 uio_in[7]
*49 uio_oe[0]
*50 uio_oe[1]
*51 uio_oe[2]
*52 uio_oe[3]
*53 uio_oe[4]
*54 uio_oe[5]
*55 uio_oe[6]
*56 uio_oe[7]
*57 uio_out[0]
*58 uio_out[1]
*59 uio_out[2]
*60 uio_out[3]
*61 uio_out[4]
*62 uio_out[5]
*63 uio_out[6]
*64 uio_out[7]
*65 uo_out[0]
*66 uo_out[1]
*67 uo_out[2]
*68 uo_out[3]
*69 uo_out[4]
*70 uo_out[5]
*71 uo_out[6]
*72 uo_out[7]
*73 _000_
*74 _001_
*75 _002_
*76 _003_
*77 _004_
*78 _005_
*79 _006_
*80 _007_
*81 _008_
*82 _009_
*83 _010_
*84 _011_
*85 _012_
*86 _013_
*87 _014_
*88 _015_
*89 _016_
*90 _017_
*91 _018_
*92 _019_
*93 _020_
*94 _021_
*95 _022_
*96 _023_
*97 _024_
*98 _025_
*99 _026_
*100 _027_
*101 _028_
*102 _029_
*103 _030_
*104 _031_
*105 _032_
*106 _033_
*107 _034_
*108 _035_
*109 _036_
*110 _037_
*111 _038_
*112 _039_
*113 _040_
*114 _041_
*115 _042_
*116 _043_
*117 _044_
*118 _045_
*119 _046_
*120 _047_
*121 _048_
*122 _049_
*123 _050_
*124 _051_
*125 _052_
*126 _053_
*127 _054_
*128 _055_
*129 _056_
*130 _057_
*131 _058_
*132 _059_
*133 _060_
*134 _061_
*135 _062_
*136 _063_
*137 _064_
*138 _065_
*139 _066_
*140 _067_
*141 _068_
*142 _069_
*143 _070_
*144 _071_
*145 _072_
*146 _073_
*147 _074_
*148 _075_
*149 _076_
*150 _077_
*151 _078_
*152 _079_
*153 _080_
*154 _081_
*155 _082_
*156 _083_
*157 _084_
*158 _085_
*159 _086_
*160 _087_
*161 _088_
*162 _089_
*163 _090_
*164 _091_
*165 _092_
*166 _093_
*167 _094_
*168 _095_
*169 _096_
*170 _097_
*171 _098_
*172 _099_
*173 _100_
*174 _101_
*175 _102_
*176 _103_
*177 _104_
*178 _105_
*179 _106_
*180 _107_
*181 _108_
*182 _109_
*183 _110_
*184 _111_
*185 _112_
*186 _113_
*187 _114_
*188 _115_
*189 _116_
*190 _117_
*191 _118_
*192 _119_
*193 _120_
*194 _121_
*195 _122_
*196 _123_
*197 _124_
*198 _125_
*199 _126_
*200 _127_
*201 _128_
*202 _129_
*203 _130_
*204 _131_
*205 _132_
*206 _133_
*207 _134_
*208 _135_
*209 _136_
*210 _137_
*211 _138_
*212 _139_
*213 _140_
*214 _141_
*215 _142_
*216 _143_
*217 _144_
*218 _145_
*219 _146_
*220 _147_
*221 _148_
*222 _149_
*223 _150_
*224 _151_
*225 _152_
*226 _153_
*227 _154_
*228 _155_
*229 _156_
*230 _157_
*231 _158_
*232 _159_
*233 _160_
*234 _161_
*235 _162_
*236 _163_
*237 _164_
*238 _165_
*239 _166_
*240 _167_
*241 _168_
*242 _169_
*243 _170_
*244 _171_
*245 _172_
*246 _173_
*247 _174_
*248 _175_
*249 _176_
*250 _177_
*251 _178_
*252 _179_
*253 _180_
*254 _181_
*255 adapter\.i2cs\.bit_count_reg\[0\]
*256 adapter\.i2cs\.bit_count_reg\[1\]
*257 adapter\.i2cs\.bit_count_reg\[2\]
*258 adapter\.i2cs\.bit_count_reg\[3\]
*259 adapter\.i2cs\.busy_reg
*260 adapter\.i2cs\.data_out_reg_valid_reg
*261 adapter\.i2cs\.data_reg\[0\]
*262 adapter\.i2cs\.data_reg\[1\]
*263 adapter\.i2cs\.data_reg\[2\]
*264 adapter\.i2cs\.data_reg\[3\]
*265 adapter\.i2cs\.data_reg\[4\]
*266 adapter\.i2cs\.data_reg\[5\]
*267 adapter\.i2cs\.data_reg\[6\]
*268 adapter\.i2cs\.data_reg\[7\]
*269 adapter\.i2cs\.data_valid_reg
*270 adapter\.i2cs\.last_scl_i_reg
*271 adapter\.i2cs\.last_sda_i_reg
*272 adapter\.i2cs\.m_axis_data_tvalid_reg
*273 adapter\.i2cs\.mode_read_reg
*274 adapter\.i2cs\.s_axis_data_tready_reg
*275 adapter\.i2cs\.scl_i_filter\[0\]
*276 adapter\.i2cs\.scl_i_filter\[1\]
*277 adapter\.i2cs\.scl_i_filter\[2\]
*278 adapter\.i2cs\.scl_i_filter\[3\]
*279 adapter\.i2cs\.scl_i_reg
*280 adapter\.i2cs\.scl_o_reg
*281 adapter\.i2cs\.sda_i_filter\[0\]
*282 adapter\.i2cs\.sda_i_filter\[1\]
*283 adapter\.i2cs\.sda_i_filter\[2\]
*284 adapter\.i2cs\.sda_i_filter\[3\]
*285 adapter\.i2cs\.sda_i_reg
*286 adapter\.i2cs\.sda_o_reg
*287 adapter\.i2cs\.state_reg\[0\]
*288 adapter\.i2cs\.state_reg\[1\]
*289 adapter\.i2cs\.state_reg\[2\]
*290 adapter\.state\[0\]
*291 adapter\.state\[1\]
*292 adapter\.state\[2\]
*293 adapter\.state\[3\]
*294 adapter\.state\[4\]
*295 adapter\.state\[5\]
*296 clknet_0_clk
*297 clknet_2_0__leaf_clk
*298 clknet_2_1__leaf_clk
*299 clknet_2_2__leaf_clk
*300 clknet_2_3__leaf_clk
*301 net1
*302 net10
*303 net100
*304 net101
*305 net102
*306 net103
*307 net104
*308 net105
*309 net11
*310 net12
*311 net13
*312 net14
*313 net15
*314 net16
*315 net17
*316 net18
*317 net19
*318 net2
*319 net20
*320 net21
*321 net22
*322 net23
*323 net24
*324 net25
*325 net26
*326 net27
*327 net28
*328 net29
*329 net3
*330 net30
*331 net31
*332 net32
*333 net33
*334 net34
*335 net35
*336 net36
*337 net37
*338 net38
*339 net39
*340 net4
*341 net40
*342 net41
*343 net42
*344 net43
*345 net44
*346 net45
*347 net46
*348 net47
*349 net48
*350 net49
*351 net5
*352 net50
*353 net51
*354 net52
*355 net53
*356 net54
*357 net55
*358 net56
*359 net57
*360 net58
*361 net59
*362 net6
*363 net60
*364 net61
*365 net62
*366 net63
*367 net64
*368 net65
*369 net66
*370 net67
*371 net68
*372 net69
*373 net7
*374 net70
*375 net71
*376 net72
*377 net73
*378 net74
*379 net75
*380 net76
*381 net77
*382 net78
*383 net79
*384 net8
*385 net80
*386 net81
*387 net82
*388 net83
*389 net84
*390 net85
*391 net86
*392 net87
*393 net88
*394 net89
*395 net9
*396 net90
*397 net91
*398 net92
*399 net93
*400 net94
*401 net95
*402 net96
*403 net97
*404 net98
*405 net99
*406 ANTENNA_1
*407 ANTENNA_2
*408 ANTENNA_3
*409 FILLER_0_0_10
*410 FILLER_0_0_111
*411 FILLER_0_0_113
*412 FILLER_0_0_139
*413 FILLER_0_0_141
*414 FILLER_0_0_162
*415 FILLER_0_0_192
*416 FILLER_0_0_217
*417 FILLER_0_0_225
*418 FILLER_0_0_234
*419 FILLER_0_0_272
*420 FILLER_0_0_279
*421 FILLER_0_0_297
*422 FILLER_0_0_3
*423 FILLER_0_0_306
*424 FILLER_0_0_334
*425 FILLER_0_0_57
*426 FILLER_0_0_85
*427 FILLER_0_1_146
*428 FILLER_0_1_167
*429 FILLER_0_1_177
*430 FILLER_0_1_185
*431 FILLER_0_1_194
*432 FILLER_0_1_264
*433 FILLER_0_1_289
*434 FILLER_0_1_314
*435 FILLER_0_1_57
*436 FILLER_0_1_9
*437 FILLER_0_2_126
*438 FILLER_0_2_172
*439 FILLER_0_2_179
*440 FILLER_0_2_195
*441 FILLER_0_2_205
*442 FILLER_0_2_222
*443 FILLER_0_2_29
*444 FILLER_0_2_306
*445 FILLER_0_2_333
*446 FILLER_0_2_69
*447 FILLER_0_2_8
*448 FILLER_0_3_162
*449 FILLER_0_3_184
*450 FILLER_0_3_191
*451 FILLER_0_3_199
*452 FILLER_0_3_222
*453 FILLER_0_3_230
*454 FILLER_0_3_32
*455 FILLER_0_4_107
*456 FILLER_0_4_12
*457 FILLER_0_4_156
*458 FILLER_0_4_166
*459 FILLER_0_4_189
*460 FILLER_0_4_205
*461 FILLER_0_4_239
*462 FILLER_0_4_269
*463 FILLER_0_4_29
*464 FILLER_0_4_3
*465 FILLER_0_4_334
*466 FILLER_0_4_39
*467 FILLER_0_4_70
*468 FILLER_0_5_111
*469 FILLER_0_5_136
*470 FILLER_0_5_15
*471 FILLER_0_5_152
*472 FILLER_0_5_158
*473 FILLER_0_5_164
*474 FILLER_0_5_202
*475 FILLER_0_5_225
*476 FILLER_0_5_247
*477 FILLER_0_5_3
*478 FILLER_0_5_325
*479 FILLER_0_5_334
*480 FILLER_0_5_38
*481 FILLER_0_5_84
*482 FILLER_0_5_9
*483 FILLER_0_6_117
*484 FILLER_0_6_141
*485 FILLER_0_6_15
*486 FILLER_0_6_161
*487 FILLER_0_6_188
*488 FILLER_0_6_197
*489 FILLER_0_6_205
*490 FILLER_0_6_230
*491 FILLER_0_6_250
*492 FILLER_0_6_27
*493 FILLER_0_6_29
*494 FILLER_0_6_3
*495 FILLER_0_6_333
*496 FILLER_0_6_48
*497 FILLER_0_6_62
*498 FILLER_0_7_110
*499 FILLER_0_7_123
*500 FILLER_0_7_145
*501 FILLER_0_7_15
*502 FILLER_0_7_153
*503 FILLER_0_7_160
*504 FILLER_0_7_169
*505 FILLER_0_7_181
*506 FILLER_0_7_187
*507 FILLER_0_7_193
*508 FILLER_0_7_201
*509 FILLER_0_7_218
*510 FILLER_0_7_225
*511 FILLER_0_7_260
*512 FILLER_0_7_27
*513 FILLER_0_7_278
*514 FILLER_0_7_281
*515 FILLER_0_7_3
*516 FILLER_0_8_107
*517 FILLER_0_8_11
*518 FILLER_0_8_127
*519 FILLER_0_8_139
*520 FILLER_0_8_150
*521 FILLER_0_8_16
*522 FILLER_0_8_160
*523 FILLER_0_8_167
*524 FILLER_0_8_177
*525 FILLER_0_8_186
*526 FILLER_0_8_194
*527 FILLER_0_8_202
*528 FILLER_0_8_21
*529 FILLER_0_8_211
*530 FILLER_0_8_222
*531 FILLER_0_8_234
*532 FILLER_0_8_246
*533 FILLER_0_8_253
*534 FILLER_0_8_27
*535 FILLER_0_8_274
*536 FILLER_0_8_29
*537 FILLER_0_8_3
*538 FILLER_0_8_304
*539 FILLER_0_8_324
*540 FILLER_0_8_332
*541 FILLER_0_8_62
*542 FILLER_0_8_83
*543 FILLER_0_9_110
*544 FILLER_0_9_139
*545 FILLER_0_9_141
*546 FILLER_0_9_153
*547 FILLER_0_9_159
*548 FILLER_0_9_16
*549 FILLER_0_9_183
*550 FILLER_0_9_195
*551 FILLER_0_9_197
*552 FILLER_0_9_205
*553 FILLER_0_9_22
*554 FILLER_0_9_269
*555 FILLER_0_9_3
*556 FILLER_0_9_305
*557 FILLER_0_9_316
*558 FILLER_0_9_32
*559 FILLER_0_9_320
*560 FILLER_0_9_324
*561 FILLER_0_9_332
*562 FILLER_0_9_37
*563 FILLER_0_9_47
*564 PHY_EDGE_ROW_0_Left_10
*565 PHY_EDGE_ROW_0_Right_0
*566 PHY_EDGE_ROW_1_Left_11
*567 PHY_EDGE_ROW_1_Right_1
*568 PHY_EDGE_ROW_2_Left_12
*569 PHY_EDGE_ROW_2_Right_2
*570 PHY_EDGE_ROW_3_Left_13
*571 PHY_EDGE_ROW_3_Right_3
*572 PHY_EDGE_ROW_4_Left_14
*573 PHY_EDGE_ROW_4_Right_4
*574 PHY_EDGE_ROW_5_Left_15
*575 PHY_EDGE_ROW_5_Right_5
*576 PHY_EDGE_ROW_6_Left_16
*577 PHY_EDGE_ROW_6_Right_6
*578 PHY_EDGE_ROW_7_Left_17
*579 PHY_EDGE_ROW_7_Right_7
*580 PHY_EDGE_ROW_8_Left_18
*581 PHY_EDGE_ROW_8_Right_8
*582 PHY_EDGE_ROW_9_Left_19
*583 PHY_EDGE_ROW_9_Right_9
*584 TAP_TAPCELL_ROW_0_20
*585 TAP_TAPCELL_ROW_0_21
*586 TAP_TAPCELL_ROW_0_22
*587 TAP_TAPCELL_ROW_0_23
*588 TAP_TAPCELL_ROW_0_24
*589 TAP_TAPCELL_ROW_0_25
*590 TAP_TAPCELL_ROW_0_26
*591 TAP_TAPCELL_ROW_0_27
*592 TAP_TAPCELL_ROW_0_28
*593 TAP_TAPCELL_ROW_0_29
*594 TAP_TAPCELL_ROW_0_30
*595 TAP_TAPCELL_ROW_1_31
*596 TAP_TAPCELL_ROW_1_32
*597 TAP_TAPCELL_ROW_1_33
*598 TAP_TAPCELL_ROW_1_34
*599 TAP_TAPCELL_ROW_1_35
*600 TAP_TAPCELL_ROW_2_36
*601 TAP_TAPCELL_ROW_2_37
*602 TAP_TAPCELL_ROW_2_38
*603 TAP_TAPCELL_ROW_2_39
*604 TAP_TAPCELL_ROW_2_40
*605 TAP_TAPCELL_ROW_2_41
*606 TAP_TAPCELL_ROW_3_42
*607 TAP_TAPCELL_ROW_3_43
*608 TAP_TAPCELL_ROW_3_44
*609 TAP_TAPCELL_ROW_3_45
*610 TAP_TAPCELL_ROW_3_46
*611 TAP_TAPCELL_ROW_4_47
*612 TAP_TAPCELL_ROW_4_48
*613 TAP_TAPCELL_ROW_4_49
*614 TAP_TAPCELL_ROW_4_50
*615 TAP_TAPCELL_ROW_4_51
*616 TAP_TAPCELL_ROW_4_52
*617 TAP_TAPCELL_ROW_5_53
*618 TAP_TAPCELL_ROW_5_54
*619 TAP_TAPCELL_ROW_5_55
*620 TAP_TAPCELL_ROW_5_56
*621 TAP_TAPCELL_ROW_5_57
*622 TAP_TAPCELL_ROW_6_58
*623 TAP_TAPCELL_ROW_6_59
*624 TAP_TAPCELL_ROW_6_60
*625 TAP_TAPCELL_ROW_6_61
*626 TAP_TAPCELL_ROW_6_62
*627 TAP_TAPCELL_ROW_6_63
*628 TAP_TAPCELL_ROW_7_64
*629 TAP_TAPCELL_ROW_7_65
*630 TAP_TAPCELL_ROW_7_66
*631 TAP_TAPCELL_ROW_7_67
*632 TAP_TAPCELL_ROW_7_68
*633 TAP_TAPCELL_ROW_8_69
*634 TAP_TAPCELL_ROW_8_70
*635 TAP_TAPCELL_ROW_8_71
*636 TAP_TAPCELL_ROW_8_72
*637 TAP_TAPCELL_ROW_8_73
*638 TAP_TAPCELL_ROW_8_74
*639 TAP_TAPCELL_ROW_9_75
*640 TAP_TAPCELL_ROW_9_76
*641 TAP_TAPCELL_ROW_9_77
*642 TAP_TAPCELL_ROW_9_78
*643 TAP_TAPCELL_ROW_9_79
*644 TAP_TAPCELL_ROW_9_80
*645 TAP_TAPCELL_ROW_9_81
*646 TAP_TAPCELL_ROW_9_82
*647 TAP_TAPCELL_ROW_9_83
*648 TAP_TAPCELL_ROW_9_84
*649 TAP_TAPCELL_ROW_9_85
*650 _182_
*651 _183_
*652 _184_
*653 _185_
*654 _186_
*655 _187_
*656 _188_
*657 _189_
*658 _190_
*659 _191_
*660 _192_
*661 _193_
*662 _194_
*663 _195_
*664 _196_
*665 _197_
*666 _198_
*667 _199_
*668 _200_
*669 _201_
*670 _202_
*671 _203_
*672 _204_
*673 _205_
*674 _206_
*675 _207_
*676 _208_
*677 _209_
*678 _210_
*679 _211_
*680 _212_
*681 _213_
*682 _214_
*683 _215_
*684 _216_
*685 _217_
*686 _218_
*687 _219_
*688 _220_
*689 _221_
*690 _222_
*691 _223_
*692 _224_
*693 _225_
*694 _226_
*695 _227_
*696 _228_
*697 _229_
*698 _230_
*699 _231_
*700 _232_
*701 _233_
*702 _234_
*703 _235_
*704 _236_
*705 _237_
*706 _238_
*707 _239_
*708 _240_
*709 _241_
*710 _242_
*711 _243_
*712 _244_
*713 _245_
*714 _246_
*715 _247_
*716 _248_
*717 _249_
*718 _250_
*719 _251_
*720 _252_
*721 _253_
*722 _254_
*723 _255_
*724 _256_
*725 _257_
*726 _258_
*727 _259_
*728 _260_
*729 _261_
*730 _262_
*731 _263_
*732 _264_
*733 _265_
*734 _266_
*735 _267_
*736 _268_
*737 _269_
*738 _270_
*739 _271_
*740 _272_
*741 _273_
*742 _274_
*743 _275_
*744 _276_
*745 _277_
*746 _278_
*747 _279_
*748 _280_
*749 _281_
*750 _282_
*751 _283_
*752 _284_
*753 _285_
*754 _286_
*755 _287_
*756 _288_
*757 _289_
*758 _290_
*759 _291_
*760 _292_
*761 _293_
*762 _294_
*763 _295_
*764 _296_
*765 _297_
*766 _298_
*767 _299_
*768 _300_
*769 _301_
*770 _302_
*771 _303_
*772 _304_
*773 _305_
*774 _306_
*775 _307_
*776 _308_
*777 _309_
*778 _310_
*779 _311_
*780 _312_
*781 _313_
*782 _314_
*783 _315_
*784 _316_
*785 _317_
*786 _318_
*787 _319_
*788 _320_
*789 _321_
*790 _322_
*791 _323_
*792 _324_
*793 _325_
*794 _326_
*795 _327_
*796 _328_
*797 _329_
*798 _330_
*799 _331_
*800 _332_
*801 _333_
*802 _334_
*803 _335_
*804 _336_
*805 _337_
*806 _338_
*807 _339_
*808 _340_
*809 _341_
*810 _342_
*811 _343_
*812 _344_
*813 _345_
*814 _346_
*815 _347_
*816 _348_
*817 _349_
*818 _350_
*819 _351_
*820 _352_
*821 _353_
*822 _354_
*823 _355_
*824 _356_
*825 _357_
*826 _358_
*827 _359_
*828 _360_
*829 _361_
*830 _362_
*831 _363_
*832 _364_
*833 _365_
*834 _366_
*835 _367_
*836 _368_
*837 _369_
*838 _370_
*839 _371_
*840 _372_
*841 _373_
*842 _374_
*843 _375_
*844 _376_
*845 _377_
*846 _378_
*847 _379_
*848 _380_
*849 _381_
*850 _382_
*851 _383_
*852 _384_
*853 _385_
*854 _386_
*855 _387_
*856 _388_
*857 _389_
*858 _390_
*859 _391_
*860 _392_
*861 _393_
*862 _394_
*863 _395_
*864 _396_
*865 _397_
*866 _398_
*867 _399_
*868 _400_
*869 _401_
*870 _402_
*871 _403_
*872 _404_
*873 _405_
*874 _406_
*875 _407_
*876 _408_
*877 _409_
*878 _410_
*879 _411_
*880 _412_
*881 _413_
*882 _414_
*883 _415_
*884 _416_
*885 _417_
*886 _418_
*887 _419_
*888 _420_
*889 _421_
*890 _422_
*891 _423_
*892 _424_
*893 _425_
*894 _425__41
*895 _426_
*896 _426__42
*897 _427_
*898 _427__43
*899 _428_
*900 _428__44
*901 _429_
*902 _429__45
*903 _430_
*904 _430__46
*905 _431_
*906 _431__47
*907 _432_
*908 _432__48
*909 _433_
*910 _434_
*911 _435_
*912 _435__49
*913 _436_
*914 _436__50
*915 _437_
*916 _437__51
*917 _438_
*918 _438__52
*919 _439_
*920 _439__53
*921 _440_
*922 _440__54
*923 _441_
*924 _441__55
*925 _442_
*926 _442__56
*927 _443_
*928 _443__57
*929 _444_
*930 _444__58
*931 _445_
*932 _445__59
*933 _446_
*934 _446__60
*935 clkbuf_0_clk
*936 clkbuf_2_0__f_clk
*937 clkbuf_2_1__f_clk
*938 clkbuf_2_2__f_clk
*939 clkbuf_2_3__f_clk
*940 fanout35
*941 fanout36
*942 fanout37
*943 fanout38
*944 fanout39
*945 fanout40
*946 hold1
*947 hold10
*948 hold11
*949 hold12
*950 hold13
*951 hold14
*952 hold15
*953 hold16
*954 hold17
*955 hold18
*956 hold19
*957 hold2
*958 hold20
*959 hold21
*960 hold22
*961 hold23
*962 hold24
*963 hold25
*964 hold26
*965 hold27
*966 hold28
*967 hold29
*968 hold3
*969 hold30
*970 hold31
*971 hold32
*972 hold33
*973 hold34
*974 hold35
*975 hold36
*976 hold37
*977 hold38
*978 hold39
*979 hold4
*980 hold40
*981 hold41
*982 hold42
*983 hold43
*984 hold44
*985 hold45
*986 hold5
*987 hold6
*988 hold7
*989 hold8
*990 hold9
*991 input1
*992 input10
*993 input11
*994 input12
*995 input2
*996 input3
*997 input4
*998 input5
*999 input6
*1000 input7
*1001 input8
*1002 input9
*1003 output13
*1004 output14
*1005 output15
*1006 output16
*1007 output17
*1008 output18
*1009 output19
*1010 output20
*1011 output21
*1012 output22
*1013 output23
*1014 output24
*1015 output25
*1016 output26
*1017 output27
*1018 output28
*1019 output29
*1020 output30
*1021 output31
*1022 output32
*1023 output33
*1024 output34

*PORTS
PADDR[0] O
PADDR[1] O
PADDR[2] O
PADDR[3] O
PADDR[4] O
PCLK O
PENABLE O
PRDATA[0] I
PRDATA[1] I
PRDATA[2] I
PRDATA[3] I
PRDATA[4] I
PRDATA[5] I
PRDATA[6] I
PRDATA[7] I
PREADY I
PRESETn O
PSEL O
PWDATA[0] O
PWDATA[1] O
PWDATA[2] O
PWDATA[3] O
PWDATA[4] O
PWDATA[5] O
PWDATA[6] O
PWDATA[7] O
PWRITE O
clk I
ena I
rst_n I
ui_in[0] I
ui_in[1] I
ui_in[2] I
ui_in[3] I
ui_in[4] I
ui_in[5] I
ui_in[6] I
ui_in[7] I
uio_in[0] I
uio_in[1] I
uio_in[2] I
uio_in[3] I
uio_in[4] I
uio_in[5] I
uio_in[6] I
uio_in[7] I
uio_oe[0] O
uio_oe[1] O
uio_oe[2] O
uio_oe[3] O
uio_oe[4] O
uio_oe[5] O
uio_oe[6] O
uio_oe[7] O
uio_out[0] O
uio_out[1] O
uio_out[2] O
uio_out[3] O
uio_out[4] O
uio_out[5] O
uio_out[6] O
uio_out[7] O
uo_out[0] O
uo_out[1] O
uo_out[2] O
uo_out[3] O
uo_out[4] O
uo_out[5] O
uo_out[6] O
uo_out[7] O

*D_NET *1 0.00710214
*CONN
*P PADDR[0] O
*I *1003:X O *D sky130_fd_sc_hd__buf_2
*CAP
1 PADDR[0] 0.0015112
2 *1003:X 0.000508725
3 *1:12 0.00201993
4 PADDR[0] *661:A1 0
5 PADDR[0] *662:D 0
6 PADDR[0] *120:37 0
7 PADDR[0] *241:33 0.000340503
8 PADDR[0] *294:18 0
9 PADDR[0] *294:24 0
10 PADDR[0] *295:14 0.000130199
11 PADDR[0] *311:12 5.57917e-05
12 PADDR[0] *311:37 0.00012681
13 PADDR[0] *313:10 6.18814e-05
14 PADDR[0] *313:76 2.70469e-05
15 PADDR[0] *330:23 0
16 PADDR[0] *330:35 0
17 PADDR[0] *387:10 0.000133316
18 PADDR[0] *396:8 0
19 PADDR[0] *404:10 2.33476e-05
20 *1:12 PADDR[1] 0.00115977
21 *1:12 *944:A 8.62783e-05
22 *1:12 *242:16 0.000782144
23 *1:12 *312:48 0
24 *1:12 *338:18 5.85977e-05
25 *1:12 *341:19 3.81338e-05
26 *1:12 *395:103 3.84628e-05
*RES
1 *1003:X *1:12 49.9323 
2 *1:12 PADDR[0] 32.4657 
*END

*D_NET *2 0.0101591
*CONN
*P PADDR[1] O
*I *1004:X O *D sky130_fd_sc_hd__buf_2
*CAP
1 PADDR[1] 0.00192009
2 *1004:X 0.000288534
3 *2:10 0.00220862
4 PADDR[1] PADDR[3] 0.000625546
5 PADDR[1] *817:B1 2.16322e-05
6 PADDR[1] *829:C1 4.63222e-05
7 PADDR[1] *121:29 0.000621547
8 PADDR[1] *129:20 0.000551343
9 PADDR[1] *242:16 0.000276823
10 PADDR[1] *243:28 8.61094e-06
11 PADDR[1] *272:37 0.000232235
12 PADDR[1] *290:53 0.000154884
13 PADDR[1] *311:37 0.00122392
14 PADDR[1] *312:48 0
15 PADDR[1] *330:35 9.76601e-05
16 *2:10 PRESETn 0.000386042
17 *2:10 *827:A2 3.7122e-06
18 *2:10 *1004:A 8.06804e-06
19 *2:10 *18:8 8.62876e-05
20 *2:10 *299:185 5.30518e-05
21 *2:10 *319:10 0.000179465
22 *2:10 *320:10 4.98718e-06
23 *1:12 PADDR[1] 0.00115977
*RES
1 *1004:X *2:10 44.8254 
2 *2:10 PADDR[1] 41.4205 
*END

*D_NET *3 0.00246209
*CONN
*P PADDR[2] O
*I *1005:X O *D sky130_fd_sc_hd__buf_2
*CAP
1 PADDR[2] 7.27894e-05
2 *1005:X 0.000583881
3 *3:8 0.00065667
4 PADDR[2] PADDR[3] 7.54522e-06
5 PADDR[2] *330:35 0
6 *3:8 PADDR[3] 0.000563198
7 *3:8 *76:12 0.000133801
8 *3:8 *127:48 0.000154022
9 *3:8 *241:8 0
10 *3:8 *246:46 0.000133316
11 *3:8 *299:126 0.000106923
12 *3:8 *313:30 1.45462e-05
13 *3:8 *314:16 0
14 *3:8 *321:35 3.53997e-05
*RES
1 *1005:X *3:8 49.5896 
2 *3:8 PADDR[2] 8.1568 
*END

*D_NET *4 0.0116355
*CONN
*P PADDR[3] O
*I *1006:X O *D sky130_fd_sc_hd__buf_2
*CAP
1 PADDR[3] 0.00246294
2 *1006:X 1.86486e-05
3 *4:10 0.00248158
4 PADDR[3] *1005:A 0.000457366
5 PADDR[3] *76:12 0.000106927
6 PADDR[3] *122:33 4.94766e-06
7 PADDR[3] *176:10 2.26497e-05
8 PADDR[3] *290:12 3.93904e-06
9 PADDR[3] *300:200 2.64672e-05
10 PADDR[3] *311:37 0.00162775
11 PADDR[3] *313:30 0.000214158
12 PADDR[3] *330:35 0.000210941
13 PADDR[3] *341:42 0.00266716
14 PADDR[3] *370:27 0.000128159
15 *4:10 *319:10 5.58873e-06
16 PADDR[1] PADDR[3] 0.000625546
17 PADDR[2] PADDR[3] 7.54522e-06
18 *3:8 PADDR[3] 0.000563198
*RES
1 *1006:X *4:10 46.3211 
2 *4:10 PADDR[3] 37.1238 
*END

*D_NET *5 0.00385704
*CONN
*P PADDR[4] O
*I *1007:X O *D sky130_fd_sc_hd__buf_2
*CAP
1 PADDR[4] 0.000630282
2 *1007:X 0.000576596
3 *5:8 0.00120688
4 PADDR[4] *241:20 0
5 PADDR[4] *248:18 0
6 PADDR[4] *294:50 1.51716e-05
7 PADDR[4] *295:47 9.18526e-05
8 PADDR[4] *323:37 0
9 PADDR[4] *330:35 0
10 PADDR[4] *338:65 3.18198e-05
11 *5:8 *829:A2 0
12 *5:8 *830:A2 0.000175321
13 *5:8 *975:A 8.33199e-05
14 *5:8 *1007:A 0.000116684
15 *5:8 *127:58 0.000219383
16 *5:8 *243:36 2.47815e-05
17 *5:8 *244:10 0.000139352
18 *5:8 *251:6 0.000137651
19 *5:8 *295:37 0.000344596
20 *5:8 *299:136 1.00493e-05
21 *5:8 *338:65 5.3304e-05
*RES
1 *1007:X *5:8 35.7807 
2 *5:8 PADDR[4] 30.6925 
*END

*D_NET *6 0.000975439
*CONN
*P PCLK O
*I *1008:X O *D sky130_fd_sc_hd__clkbuf_1
*CAP
1 PCLK 5.28284e-05
2 *1008:X 0.000244618
3 *6:8 0.000297447
4 *6:8 PRESETn 0
5 *6:8 *18:8 7.43762e-05
6 *6:8 *241:52 0.000222123
7 *6:8 *320:10 8.4047e-05
*RES
1 *1008:X *6:8 43.9554 
2 *6:8 PCLK 8.1568 
*END

*D_NET *7 0.00109631
*CONN
*P PENABLE O
*I *1009:X O *D sky130_fd_sc_hd__buf_2
*CAP
1 PENABLE 9.74123e-05
2 *1009:X 0.000381336
3 *7:8 0.000478748
4 PENABLE *324:42 0
5 *7:8 PWRITE 0
6 *7:8 *1009:A 0
7 *7:8 *299:24 9.28078e-06
8 *7:8 *299:38 6.61847e-05
9 *7:8 *315:14 6.33485e-05
10 *7:8 *330:35 0
*RES
1 *1009:X *7:8 43.9554 
2 *7:8 PENABLE 8.24267 
*END

*D_NET *8 0.00571155
*CONN
*P PRDATA[0] I
*I *991:A I *D sky130_fd_sc_hd__clkbuf_1
*CAP
1 PRDATA[0] 0.00179033
2 *991:A 0
3 *8:21 0.00179033
4 *8:21 *9:25 0.000124594
5 *8:21 *10:13 0
6 *8:21 *12:15 0
7 *8:21 *13:13 0
8 *8:21 *266:69 0
9 *8:21 *326:18 9.21981e-05
10 *8:21 *378:10 2.05503e-05
11 *8:21 *395:20 0.00189356
*RES
1 PRDATA[0] *8:21 30.1733 
2 *8:21 *991:A 23 
*END

*D_NET *9 0.00352071
*CONN
*P PRDATA[1] I
*I *995:A I *D sky130_fd_sc_hd__clkbuf_1
*CAP
1 PRDATA[1] 0.00130326
2 *995:A 0
3 *9:25 0.00130326
4 *9:25 *764:A2 6.40847e-05
5 *9:25 *772:B 0
6 *9:25 *866:CLK 0
7 *9:25 *193:63 8.48085e-05
8 *9:25 *204:20 6.52156e-05
9 *9:25 *205:18 0
10 *9:25 *205:54 0
11 *9:25 *297:10 0
12 *9:25 *297:14 0
13 *9:25 *298:8 7.88828e-05
14 *9:25 *298:22 0
15 *9:25 *298:124 0
16 *9:25 *318:10 0.000159787
17 *9:25 *324:10 7.09331e-05
18 *9:25 *324:20 3.33431e-05
19 *9:25 *326:37 0
20 *9:25 *350:8 0
21 *9:25 *392:45 0.00023255
22 *8:21 *9:25 0.000124594
*RES
1 PRDATA[1] *9:25 40.6944 
2 *9:25 *995:A 23 
*END

*D_NET *10 0.00570658
*CONN
*P PRDATA[2] I
*I *996:A I *D sky130_fd_sc_hd__clkbuf_1
*CAP
1 PRDATA[2] 0.00164623
2 *996:A 0
3 *10:19 0.000115431
4 *10:13 0.00176167
5 *10:13 *11:17 7.39438e-05
6 *10:13 *215:8 1.58805e-05
7 *10:13 *215:14 0.00208328
8 *10:19 *208:34 0
9 *10:19 *215:20 0
10 *10:19 *265:24 0
11 *10:19 *391:14 1.01436e-05
12 *8:21 *10:13 0
*RES
1 PRDATA[2] *10:13 48.5956 
2 *10:13 *10:19 31.9057 
3 *10:19 *996:A 23 
*END

*D_NET *11 0.0080412
*CONN
*P PRDATA[3] I
*I *997:A I *D sky130_fd_sc_hd__clkbuf_1
*I *408:DIODE I *D sky130_fd_sc_hd__diode_2
*CAP
1 PRDATA[3] 0.00222908
2 *997:A 0.000139818
3 *408:DIODE 0
4 *11:19 0.000139818
5 *11:17 0.00222908
6 *997:A *14:31 0.000146437
7 *11:17 *955:A 0.000137807
8 *11:17 *193:122 0.00110223
9 *11:17 *202:138 0
10 *11:17 *204:98 0
11 *11:17 *204:106 7.39704e-05
12 *11:17 *208:64 0
13 *11:17 *215:8 0
14 *11:17 *225:44 9.55441e-05
15 *11:17 *265:18 0
16 *11:17 *265:43 0
17 *11:17 *301:24 2.93505e-05
18 *11:17 *325:56 0.00053144
19 *11:17 *329:22 0
20 *11:17 *351:10 7.1459e-05
21 *11:17 *379:16 0
22 *11:17 *395:20 0.00104122
23 *10:13 *11:17 7.39438e-05
*RES
1 PRDATA[3] *11:17 38.8834 
2 *11:17 *11:19 15 
3 *11:19 *408:DIODE 23 
4 *11:19 *997:A 25.9 
*END

*D_NET *12 0.00676172
*CONN
*P PRDATA[4] I
*I *406:DIODE I *D sky130_fd_sc_hd__diode_2
*I *998:A I *D sky130_fd_sc_hd__clkbuf_1
*CAP
1 PRDATA[4] 0.00115656
2 *406:DIODE 0.000475846
3 *998:A 0.000100038
4 *12:19 0.001057
5 *12:15 0.00163768
6 *406:DIODE *857:CLK 2.76611e-06
7 *406:DIODE *858:CLK 3.1157e-05
8 *406:DIODE *95:10 6.63464e-06
9 *406:DIODE *265:10 8.4047e-05
10 *406:DIODE *266:24 0.000178773
11 *406:DIODE *373:14 0.000302812
12 *998:A *14:31 0.00012676
13 *998:A *222:14 4.94298e-05
14 *998:A *297:40 0
15 *12:15 *13:13 0
16 *12:15 *215:14 0.00031514
17 *12:15 *331:28 0.000833108
18 *12:19 *773:A2 0
19 *12:19 *857:CLK 2.79379e-05
20 *12:19 *16:11 0
21 *12:19 *202:119 6.38845e-05
22 *12:19 *215:20 0
23 *12:19 *216:12 0
24 *12:19 *217:20 9.01636e-05
25 *12:19 *218:20 7.1789e-05
26 *12:19 *266:24 0.0001502
27 *12:19 *389:8 0
28 *8:21 *12:15 0
*RES
1 PRDATA[4] *12:15 46.5201 
2 *12:15 *12:19 23.5964 
3 *12:19 *998:A 40.3614 
4 *12:19 *406:DIODE 45.5193 
*END

*D_NET *13 0.00428504
*CONN
*P PRDATA[5] I
*I *999:A I *D sky130_fd_sc_hd__clkbuf_1
*CAP
1 PRDATA[5] 0.0016458
2 *999:A 0
3 *13:13 0.0016458
4 *13:13 *14:15 0
5 *13:13 *89:10 0
6 *13:13 *193:99 0
7 *13:13 *202:68 2.26406e-05
8 *13:13 *202:77 6.17354e-05
9 *13:13 *202:92 5.91176e-05
10 *13:13 *208:18 6.02684e-06
11 *13:13 *213:12 0
12 *13:13 *263:14 0
13 *13:13 *264:23 0
14 *13:13 *286:20 0
15 *13:13 *298:80 0
16 *13:13 *298:93 0
17 *13:13 *325:56 2.26497e-05
18 *13:13 *327:8 0.000394478
19 *13:13 *329:16 0
20 *13:13 *352:8 8.85189e-05
21 *13:13 *353:8 0
22 *13:13 *378:10 0
23 *13:13 *379:8 0
24 *13:13 *390:8 0
25 *13:13 *390:29 0
26 *13:13 *392:24 6.18208e-05
27 *13:13 *395:20 0
28 *13:13 *397:10 0.000142376
29 *13:13 *397:30 0.000134081
30 *8:21 *13:13 0
31 *12:15 *13:13 0
*RES
1 PRDATA[5] *13:13 48.4269 
2 *13:13 *999:A 23 
*END

*D_NET *14 0.00630735
*CONN
*P PRDATA[6] I
*I *1000:A I *D sky130_fd_sc_hd__clkbuf_1
*CAP
1 PRDATA[6] 0.000834789
2 *1000:A 0
3 *14:31 0.00141966
4 *14:15 0.00225445
5 *14:15 *103:10 0.000129751
6 *14:15 *193:99 0.000141954
7 *14:15 *331:40 0
8 *14:15 *379:8 0.000173065
9 *14:15 *383:8 0.000120253
10 *14:15 *395:20 0
11 *14:31 *782:A1 0.000182544
12 *14:31 *782:A2 1.0241e-05
13 *14:31 *856:D 0.000187731
14 *14:31 *193:99 0.000152215
15 *14:31 *193:105 1.63709e-05
16 *14:31 *204:106 0.000168744
17 *14:31 *222:14 5.5911e-05
18 *14:31 *297:40 0.000133159
19 *14:31 *351:10 5.3304e-05
20 *997:A *14:31 0.000146437
21 *998:A *14:31 0.00012676
22 *13:13 *14:15 0
*RES
1 PRDATA[6] *14:15 34.6963 
2 *14:15 *14:31 37.5164 
3 *14:31 *1000:A 38 
*END

*D_NET *15 0.00535378
*CONN
*P PRDATA[7] I
*I *1001:A I *D sky130_fd_sc_hd__clkbuf_1
*CAP
1 PRDATA[7] 0.00201023
2 *1001:A 0
3 *15:25 0.00201023
4 *15:25 *770:B1 4.66108e-05
5 *15:25 *775:B 0
6 *15:25 *782:A1 0.000566939
7 *15:25 *859:CLK 0.000327305
8 *15:25 *859:D 4.94192e-05
9 *15:25 *91:10 0
10 *15:25 *205:90 0
11 *15:25 *208:34 0
12 *15:25 *265:24 0
13 *15:25 *266:24 0
14 *15:25 *297:34 0.00014625
15 *15:25 *391:14 5.02657e-05
16 *15:25 *395:20 0.000146537
17 *15:25 *399:10 0
*RES
1 PRDATA[7] *15:25 46.5693 
2 *15:25 *1001:A 23 
*END

*D_NET *16 0.000875994
*CONN
*P PREADY I
*I *1002:A I *D sky130_fd_sc_hd__clkbuf_4
*CAP
1 PREADY 0.000372058
2 *1002:A 0
3 *16:11 0.000372058
4 *16:11 *204:106 0.000131878
5 *12:19 *16:11 0
*RES
1 PREADY *16:11 30.1686 
2 *16:11 *1002:A 23 
*END

*D_NET *17 0.00337167
*CONN
*P PRESETn O
*I *1010:X O *D sky130_fd_sc_hd__buf_2
*CAP
1 PRESETn 0.000712942
2 *1010:X 0
3 *17:6 0.000712942
4 PRESETn PSEL 0.000121461
5 PRESETn *674:A 0.000117931
6 PRESETn *944:A 0.000578449
7 PRESETn *18:8 0.000202082
8 PRESETn *123:10 4.70182e-05
9 PRESETn *123:22 2.71291e-05
10 PRESETn *241:33 0
11 PRESETn *295:8 2.54646e-05
12 PRESETn *295:14 5.57849e-05
13 PRESETn *312:48 0.000100717
14 PRESETn *319:10 4.90911e-05
15 PRESETn *330:23 1.20966e-05
16 PRESETn *341:19 6.48142e-05
17 PRESETn *341:42 0.000157702
18 *2:10 PRESETn 0.000386042
19 *6:8 PRESETn 0
*RES
1 *1010:X *17:6 38 
2 *17:6 PRESETn 25.6383 
*END

*D_NET *18 0.00298367
*CONN
*P PSEL O
*I *1011:X O *D sky130_fd_sc_hd__buf_2
*CAP
1 PSEL 0.000546304
2 *1011:X 0.000428094
3 *18:8 0.000974398
4 PSEL *330:23 6.58415e-05
5 *18:8 *674:A 0.000115709
6 *18:8 *312:48 9.75463e-05
7 *18:8 *320:10 0.000248934
8 *18:8 *330:23 2.26406e-05
9 PRESETn PSEL 0.000121461
10 PRESETn *18:8 0.000202082
11 *2:10 *18:8 8.62876e-05
12 *6:8 *18:8 7.43762e-05
*RES
1 *1011:X *18:8 48.1811 
2 *18:8 PSEL 9.63893 
*END

*D_NET *19 0.00103403
*CONN
*P PWDATA[0] O
*I *1012:X O *D sky130_fd_sc_hd__buf_2
*CAP
1 PWDATA[0] 3.04535e-05
2 *1012:X 0.000435619
3 *19:10 0.000466072
4 *19:10 *850:CLK 4.06849e-05
5 *19:10 *850:D 5.65601e-05
6 *19:10 *288:8 4.6439e-06
7 *19:10 *321:24 0
*RES
1 *1012:X *19:10 44.6182 
2 *19:10 PWDATA[0] 8.07093 
*END

*D_NET *20 0.000850925
*CONN
*P PWDATA[1] O
*I *1013:X O *D sky130_fd_sc_hd__buf_2
*CAP
1 PWDATA[1] 0.000261537
2 *1013:X 0.000261537
3 PWDATA[1] *21:8 7.28196e-05
4 PWDATA[1] *322:29 8.62876e-05
5 PWDATA[1] *323:25 0.000168744
6 PWDATA[1] *324:42 0
*RES
1 *1013:X PWDATA[1] 49.5526 
*END

*D_NET *21 0.000962945
*CONN
*P PWDATA[2] O
*I *1014:X O *D sky130_fd_sc_hd__buf_2
*CAP
1 PWDATA[2] 5.95924e-05
2 *1014:X 0.00029956
3 *21:8 0.000359152
4 PWDATA[2] *324:42 0
5 *21:8 *1014:A 3.53344e-05
6 *21:8 *22:8 0
7 *21:8 *322:29 0.000136486
8 *21:8 *324:42 0
9 PWDATA[1] *21:8 7.28196e-05
*RES
1 *1014:X *21:8 43.9554 
2 *21:8 PWDATA[2] 8.1568 
*END

*D_NET *22 0.000935027
*CONN
*P PWDATA[3] O
*I *1015:X O *D sky130_fd_sc_hd__buf_2
*CAP
1 PWDATA[3] 8.87461e-05
2 *1015:X 0.000331312
3 *22:8 0.000420058
4 PWDATA[3] *395:20 0
5 *22:8 *83:8 0
6 *22:8 *269:14 3.81363e-05
7 *22:8 *324:42 5.67735e-05
8 *21:8 *22:8 0
*RES
1 *1015:X *22:8 43.9554 
2 *22:8 PWDATA[3] 8.24267 
*END

*D_NET *23 0.000632783
*CONN
*P PWDATA[4] O
*I *1016:X O *D sky130_fd_sc_hd__buf_2
*CAP
1 PWDATA[4] 0.000218122
2 *1016:X 0.000218122
3 PWDATA[4] *321:12 0.00019654
4 PWDATA[4] *331:26 0
5 PWDATA[4] *395:20 0
*RES
1 *1016:X PWDATA[4] 49.3809 
*END

*D_NET *24 0.00362165
*CONN
*P PWDATA[5] O
*I *1017:X O *D sky130_fd_sc_hd__buf_2
*CAP
1 PWDATA[5] 0.000413484
2 *1017:X 8.943e-05
3 *24:20 0.00100151
4 *24:8 0.000677451
5 PWDATA[5] *395:20 3.50211e-05
6 *24:8 *397:38 3.39192e-05
7 *24:20 PWDATA[6] 0
8 *24:20 *862:D 0.000119827
9 *24:20 *26:6 0.000439375
10 *24:20 *225:12 1.24376e-05
11 *24:20 *297:102 3.71251e-05
12 *24:20 *328:29 0.000366035
13 *24:20 *331:26 6.95512e-05
14 *24:20 *374:10 5.67058e-05
15 *24:20 *397:38 0.000269781
*RES
1 *1017:X *24:8 39.2014 
2 *24:8 *24:20 45.7325 
3 *24:20 PWDATA[5] 9.4112 
*END

*D_NET *25 0.00208292
*CONN
*P PWDATA[6] O
*I *1018:X O *D sky130_fd_sc_hd__buf_2
*CAP
1 PWDATA[6] 0.000917277
2 *1018:X 0
3 *25:6 0.000917277
4 PWDATA[6] PWDATA[7] 0
5 PWDATA[6] *806:S 1.76075e-05
6 PWDATA[6] *98:10 6.06337e-05
7 PWDATA[6] *100:8 0
8 PWDATA[6] *230:24 0.000107531
9 PWDATA[6] *261:42 0
10 PWDATA[6] *297:102 0
11 PWDATA[6] *305:8 0
12 PWDATA[6] *327:33 6.25972e-05
13 PWDATA[6] *374:10 0
14 PWDATA[6] *395:20 0
15 *24:20 PWDATA[6] 0
*RES
1 *1018:X *25:6 38 
2 *25:6 PWDATA[6] 21.6789 
*END

*D_NET *26 0.00529718
*CONN