*SPEF "ieee 1481-1999"
*DESIGN "I2C"
*DATE "13:43:16 Friday March 29, 2024"
*VENDOR "The OpenROAD Project"
*PROGRAM "OpenROAD"
*VERSION "0889970d1790a2617e69f253221b8bd7626e51dc"
*DESIGN_FLOW "NAME_SCOPE LOCAL" "PIN_CAP NONE"
*DIVIDER /
*DELIMITER :
*BUS_DELIMITER []
*T_UNIT 1 NS
*C_UNIT 1 PF
*R_UNIT 1 OHM
*L_UNIT 1 HENRY

*NAME_MAP
*1 PADDR[0]
*2 PADDR[1]
*3 PADDR[2]
*4 PADDR[3]
*5 PADDR[4]
*6 PCLK
*7 PENABLE
*8 PRDATA[0]
*9 PRDATA[1]
*10 PRDATA[2]
*11 PRDATA[3]
*12 PRDATA[4]
*13 PRDATA[5]
*14 PRDATA[6]
*15 PRDATA[7]
*16 PREADY
*17 PRESETn
*18 PSEL
*19 PWDATA[0]
*20 PWDATA[1]
*21 PWDATA[2]
*22 PWDATA[3]
*23 PWDATA[4]
*24 PWDATA[5]
*25 PWDATA[6]
*26 PWDATA[7]
*27 PWRITE
*30 clk
*31 ena
*32 rst_n
*33 ui_in[0]
*34 ui_in[1]
*35 ui_in[2]
*36 ui_in[3]
*37 ui_in[4]
*38 ui_in[5]
*39 ui_in[6]
*40 ui_in[7]
*41 uio_in[0]
*42 uio_in[1]
*43 uio_in[2]
*44 uio_in[3]
*45 uio_in[4]
*46 uio_in[5]
*47 uio_in[6]
*48 uio_in[7]
*49 uio_oe[0]
*50 uio_oe[1]
*51 uio_oe[2]
*52 uio_oe[3]
*53 uio_oe[4]
*54 uio_oe[5]
*55 uio_oe[6]
*56 uio_oe[7]
*57 uio_out[0]
*58 uio_out[1]
*59 uio_out[2]
*60 uio_out[3]
*61 uio_out[4]
*62 uio_out[5]
*63 uio_out[6]
*64 uio_out[7]
*65 uo_out[0]
*66 uo_out[1]
*67 uo_out[2]
*68 uo_out[3]
*69 uo_out[4]
*70 uo_out[5]
*71 uo_out[6]
*72 uo_out[7]
*73 _000_
*74 _001_
*75 _002_
*76 _003_
*77 _004_
*78 _005_
*79 _006_
*80 _007_
*81 _008_
*82 _009_
*83 _010_
*84 _011_
*85 _012_
*86 _013_
*87 _014_
*88 _015_
*89 _016_
*90 _017_
*91 _018_
*92 _019_
*93 _020_
*94 _021_
*95 _022_
*96 _023_
*97 _024_
*98 _025_
*99 _026_
*100 _027_
*101 _028_
*102 _029_
*103 _030_
*104 _031_
*105 _032_
*106 _033_
*107 _034_
*108 _035_
*109 _036_
*110 _037_
*111 _038_
*112 _039_
*113 _040_
*114 _041_
*115 _042_
*116 _043_
*117 _044_
*118 _045_
*119 _046_
*120 _047_
*121 _048_
*122 _049_
*123 _050_
*124 _051_
*125 _052_
*126 _053_
*127 _054_
*128 _055_
*129 _056_
*130 _057_
*131 _058_
*132 _059_
*133 _060_
*134 _061_
*135 _062_
*136 _063_
*137 _064_
*138 _065_
*139 _066_
*140 _067_
*141 _068_
*142 _069_
*143 _070_
*144 _071_
*145 _072_
*146 _073_
*147 _074_
*148 _075_
*149 _076_
*150 _077_
*151 _078_
*152 _079_
*153 _080_
*154 _081_
*155 _082_
*156 _083_
*157 _084_
*158 _085_
*159 _086_
*160 _087_
*161 _088_
*162 _089_
*163 _090_
*164 _091_
*165 _092_
*166 _093_
*167 _094_
*168 _095_
*169 _096_
*170 _097_
*171 _098_
*172 _099_
*173 _100_
*174 _101_
*175 _102_
*176 _103_
*177 _104_
*178 _105_
*179 _106_
*180 _107_
*181 _108_
*182 _109_
*183 _110_
*184 _111_
*185 _112_
*186 _113_
*187 _114_
*188 _115_
*189 _116_
*190 _117_
*191 _118_
*192 _119_
*193 _120_
*194 _121_
*195 _122_
*196 _123_
*197 _124_
*198 _125_
*199 _126_
*200 _127_
*201 _128_
*202 _129_
*203 _130_
*204 _131_
*205 _132_
*206 _133_
*207 _134_
*208 _135_
*209 _136_
*210 _137_
*211 _138_
*212 _139_
*213 _140_
*214 _141_
*215 _142_
*216 _143_
*217 _144_
*218 _145_
*219 _146_
*220 _147_
*221 _148_
*222 _149_
*223 _150_
*224 _151_
*225 _152_
*226 _153_
*227 _154_
*228 _155_
*229 _156_
*230 _157_
*231 _158_
*232 _159_
*233 _160_
*234 _161_
*235 _162_
*236 _163_
*237 _164_
*238 _165_
*239 _166_
*240 _167_
*241 _168_
*242 _169_
*243 _170_
*244 _171_
*245 _172_
*246 _173_
*247 _174_
*248 _175_
*249 _176_
*250 _177_
*251 _178_
*252 _179_
*253 _180_
*254 _181_
*255 adapter\.i2cs\.bit_count_reg\[0\]
*256 adapter\.i2cs\.bit_count_reg\[1\]
*257 adapter\.i2cs\.bit_count_reg\[2\]
*258 adapter\.i2cs\.bit_count_reg\[3\]
*259 adapter\.i2cs\.busy_reg
*260 adapter\.i2cs\.data_out_reg_valid_reg
*261 adapter\.i2cs\.data_reg\[0\]
*262 adapter\.i2cs\.data_reg\[1\]
*263 adapter\.i2cs\.data_reg\[2\]
*264 adapter\.i2cs\.data_reg\[3\]
*265 adapter\.i2cs\.data_reg\[4\]
*266 adapter\.i2cs\.data_reg\[5\]
*267 adapter\.i2cs\.data_reg\[6\]
*268 adapter\.i2cs\.data_reg\[7\]
*269 adapter\.i2cs\.data_valid_reg
*270 adapter\.i2cs\.last_scl_i_reg
*271 adapter\.i2cs\.last_sda_i_reg
*272 adapter\.i2cs\.m_axis_data_tvalid_reg
*273 adapter\.i2cs\.mode_read_reg
*274 adapter\.i2cs\.s_axis_data_tready_reg
*275 adapter\.i2cs\.scl_i_filter\[0\]
*276 adapter\.i2cs\.scl_i_filter\[1\]
*277 adapter\.i2cs\.scl_i_filter\[2\]
*278 adapter\.i2cs\.scl_i_filter\[3\]
*279 adapter\.i2cs\.scl_i_reg
*280 adapter\.i2cs\.scl_o_reg
*281 adapter\.i2cs\.sda_i_filter\[0\]
*282 adapter\.i2cs\.sda_i_filter\[1\]
*283 adapter\.i2cs\.sda_i_filter\[2\]
*284 adapter\.i2cs\.sda_i_filter\[3\]
*285 adapter\.i2cs\.sda_i_reg
*286 adapter\.i2cs\.sda_o_reg
*287 adapter\.i2cs\.state_reg\[0\]
*288 adapter\.i2cs\.state_reg\[1\]
*289 adapter\.i2cs\.state_reg\[2\]
*290 adapter\.state\[0\]
*291 adapter\.state\[1\]
*292 adapter\.state\[2\]
*293 adapter\.state\[3\]
*294 adapter\.state\[4\]
*295 adapter\.state\[5\]
*296 clknet_0_clk
*297 clknet_2_0__leaf_clk
*298 clknet_2_1__leaf_clk
*299 clknet_2_2__leaf_clk
*300 clknet_2_3__leaf_clk
*301 net1
*302 net10
*303 net100
*304 net101
*305 net102
*306 net103
*307 net104
*308 net105
*309 net11
*310 net12
*311 net13
*312 net14
*313 net15
*314 net16
*315 net17
*316 net18
*317 net19
*318 net2
*319 net20
*320 net21
*321 net22
*322 net23
*323 net24
*324 net25
*325 net26
*326 net27
*327 net28
*328 net29
*329 net3
*330 net30
*331 net31
*332 net32
*333 net33
*334 net34
*335 net35
*336 net36
*337 net37
*338 net38
*339 net39
*340 net4
*341 net40
*342 net41
*343 net42
*344 net43
*345 net44
*346 net45
*347 net46
*348 net47
*349 net48
*350 net49
*351 net5
*352 net50
*353 net51
*354 net52
*355 net53
*356 net54
*357 net55
*358 net56
*359 net57
*360 net58
*361 net59
*362 net6
*363 net60
*364 net61
*365 net62
*366 net63
*367 net64
*368 net65
*369 net66
*370 net67
*371 net68
*372 net69
*373 net7
*374 net70
*375 net71
*376 net72
*377 net73
*378 net74
*379 net75
*380 net76
*381 net77
*382 net78
*383 net79
*384 net8
*385 net80
*386 net81
*387 net82
*388 net83
*389 net84
*390 net85
*391 net86
*392 net87
*393 net88
*394 net89
*395 net9
*396 net90
*397 net91
*398 net92
*399 net93
*400 net94
*401 net95
*402 net96
*403 net97
*404 net98
*405 net99
*406 ANTENNA_1
*407 ANTENNA_2
*408 ANTENNA_3
*409 FILLER_0_0_10
*410 FILLER_0_0_111
*411 FILLER_0_0_113
*412 FILLER_0_0_139
*413 FILLER_0_0_141
*414 FILLER_0_0_162
*415 FILLER_0_0_192
*416 FILLER_0_0_217
*417 FILLER_0_0_225
*418 FILLER_0_0_234
*419 FILLER_0_0_272
*420 FILLER_0_0_279
*421 FILLER_0_0_297
*422 FILLER_0_0_3
*423 FILLER_0_0_306
*424 FILLER_0_0_334
*425 FILLER_0_0_57
*426 FILLER_0_0_85
*427 FILLER_0_1_146
*428 FILLER_0_1_167
*429 FILLER_0_1_177
*430 FILLER_0_1_185
*431 FILLER_0_1_194
*432 FILLER_0_1_264
*433 FILLER_0_1_289
*434 FILLER_0_1_314
*435 FILLER_0_1_57
*436 FILLER_0_1_9
*437 FILLER_0_2_126
*438 FILLER_0_2_172
*439 FILLER_0_2_179
*440 FILLER_0_2_195
*441 FILLER_0_2_205
*442 FILLER_0_2_222
*443 FILLER_0_2_29
*444 FILLER_0_2_306
*445 FILLER_0_2_333
*446 FILLER_0_2_69
*447 FILLER_0_2_8
*448 FILLER_0_3_162
*449 FILLER_0_3_184
*450 FILLER_0_3_191
*451 FILLER_0_3_199
*452 FILLER_0_3_222
*453 FILLER_0_3_230
*454 FILLER_0_3_32
*455 FILLER_0_4_107
*456 FILLER_0_4_12
*457 FILLER_0_4_156
*458 FILLER_0_4_166
*459 FILLER_0_4_189
*460 FILLER_0_4_205
*461 FILLER_0_4_239
*462 FILLER_0_4_269
*463 FILLER_0_4_29
*464 FILLER_0_4_3
*465 FILLER_0_4_334
*466 FILLER_0_4_39
*467 FILLER_0_4_70
*468 FILLER_0_5_111
*469 FILLER_0_5_136
*470 FILLER_0_5_15
*471 FILLER_0_5_152
*472 FILLER_0_5_158
*473 FILLER_0_5_164
*474 FILLER_0_5_202
*475 FILLER_0_5_225
*476 FILLER_0_5_247
*477 FILLER_0_5_3
*478 FILLER_0_5_325
*479 FILLER_0_5_334
*480 FILLER_0_5_38
*481 FILLER_0_5_84
*482 FILLER_0_5_9
*483 FILLER_0_6_117
*484 FILLER_0_6_141
*485 FILLER_0_6_15
*486 FILLER_0_6_161
*487 FILLER_0_6_188
*488 FILLER_0_6_197
*489 FILLER_0_6_205
*490 FILLER_0_6_230
*491 FILLER_0_6_250
*492 FILLER_0_6_27
*493 FILLER_0_6_29
*494 FILLER_0_6_3
*495 FILLER_0_6_333
*496 FILLER_0_6_48
*497 FILLER_0_6_62
*498 FILLER_0_7_110
*499 FILLER_0_7_123
*500 FILLER_0_7_145
*501 FILLER_0_7_15
*502 FILLER_0_7_153
*503 FILLER_0_7_160
*504 FILLER_0_7_169
*505 FILLER_0_7_181
*506 FILLER_0_7_187
*507 FILLER_0_7_193
*508 FILLER_0_7_201
*509 FILLER_0_7_218
*510 FILLER_0_7_225
*511 FILLER_0_7_260
*512 FILLER_0_7_27
*513 FILLER_0_7_278
*514 FILLER_0_7_281
*515 FILLER_0_7_3
*516 FILLER_0_8_107
*517 FILLER_0_8_11
*518 FILLER_0_8_127
*519 FILLER_0_8_139
*520 FILLER_0_8_150
*521 FILLER_0_8_16
*522 FILLER_0_8_160
*523 FILLER_0_8_167
*524 FILLER_0_8_177
*525 FILLER_0_8_186
*526 FILLER_0_8_194
*527 FILLER_0_8_202
*528 FILLER_0_8_21
*529 FILLER_0_8_211
*530 FILLER_0_8_222
*531 FILLER_0_8_234
*532 FILLER_0_8_246
*533 FILLER_0_8_253
*534 FILLER_0_8_27
*535 FILLER_0_8_274
*536 FILLER_0_8_29
*537 FILLER_0_8_3
*538 FILLER_0_8_304
*539 FILLER_0_8_324
*540 FILLER_0_8_332
*541 FILLER_0_8_62
*542 FILLER_0_8_83
*543 FILLER_0_9_110
*544 FILLER_0_9_139
*545 FILLER_0_9_141
*546 FILLER_0_9_153
*547 FILLER_0_9_159
*548 FILLER_0_9_16
*549 FILLER_0_9_183
*550 FILLER_0_9_195
*551 FILLER_0_9_197
*552 FILLER_0_9_205
*553 FILLER_0_9_22
*554 FILLER_0_9_269
*555 FILLER_0_9_3
*556 FILLER_0_9_305
*557 FILLER_0_9_316
*558 FILLER_0_9_32
*559 FILLER_0_9_320
*560 FILLER_0_9_324
*561 FILLER_0_9_332
*562 FILLER_0_9_37
*563 FILLER_0_9_47
*564 PHY_EDGE_ROW_0_Left_10
*565 PHY_EDGE_ROW_0_Right_0
*566 PHY_EDGE_ROW_1_Left_11
*567 PHY_EDGE_ROW_1_Right_1
*568 PHY_EDGE_ROW_2_Left_12
*569 PHY_EDGE_ROW_2_Right_2
*570 PHY_EDGE_ROW_3_Left_13
*571 PHY_EDGE_ROW_3_Right_3
*572 PHY_EDGE_ROW_4_Left_14
*573 PHY_EDGE_ROW_4_Right_4
*574 PHY_EDGE_ROW_5_Left_15
*575 PHY_EDGE_ROW_5_Right_5
*576 PHY_EDGE_ROW_6_Left_16
*577 PHY_EDGE_ROW_6_Right_6
*578 PHY_EDGE_ROW_7_Left_17
*579 PHY_EDGE_ROW_7_Right_7
*580 PHY_EDGE_ROW_8_Left_18
*581 PHY_EDGE_ROW_8_Right_8
*582 PHY_EDGE_ROW_9_Left_19
*583 PHY_EDGE_ROW_9_Right_9
*584 TAP_TAPCELL_ROW_0_20
*585 TAP_TAPCELL_ROW_0_21
*586 TAP_TAPCELL_ROW_0_22
*587 TAP_TAPCELL_ROW_0_23
*588 TAP_TAPCELL_ROW_0_24
*589 TAP_TAPCELL_ROW_0_25
*590 TAP_TAPCELL_ROW_0_26
*591 TAP_TAPCELL_ROW_0_27
*592 TAP_TAPCELL_ROW_0_28
*593 TAP_TAPCELL_ROW_0_29
*594 TAP_TAPCELL_ROW_0_30
*595 TAP_TAPCELL_ROW_1_31
*596 TAP_TAPCELL_ROW_1_32
*597 TAP_TAPCELL_ROW_1_33
*598 TAP_TAPCELL_ROW_1_34
*599 TAP_TAPCELL_ROW_1_35
*600 TAP_TAPCELL_ROW_2_36
*601 TAP_TAPCELL_ROW_2_37
*602 TAP_TAPCELL_ROW_2_38
*603 TAP_TAPCELL_ROW_2_39
*604 TAP_TAPCELL_ROW_2_40
*605 TAP_TAPCELL_ROW_2_41
*606 TAP_TAPCELL_ROW_3_42
*607 TAP_TAPCELL_ROW_3_43
*608 TAP_TAPCELL_ROW_3_44
*609 TAP_TAPCELL_ROW_3_45
*610 TAP_TAPCELL_ROW_3_46
*611 TAP_TAPCELL_ROW_4_47
*612 TAP_TAPCELL_ROW_4_48
*613 TAP_TAPCELL_ROW_4_49
*614 TAP_TAPCELL_ROW_4_50
*615 TAP_TAPCELL_ROW_4_51
*616 TAP_TAPCELL_ROW_4_52
*617 TAP_TAPCELL_ROW_5_53
*618 TAP_TAPCELL_ROW_5_54
*619 TAP_TAPCELL_ROW_5_55
*620 TAP_TAPCELL_ROW_5_56
*621 TAP_TAPCELL_ROW_5_57
*622 TAP_TAPCELL_ROW_6_58
*623 TAP_TAPCELL_ROW_6_59
*624 TAP_TAPCELL_ROW_6_60
*625 TAP_TAPCELL_ROW_6_61
*626 TAP_TAPCELL_ROW_6_62
*627 TAP_TAPCELL_ROW_6_63
*628 TAP_TAPCELL_ROW_7_64
*629 TAP_TAPCELL_ROW_7_65
*630 TAP_TAPCELL_ROW_7_66
*631 TAP_TAPCELL_ROW_7_67
*632 TAP_TAPCELL_ROW_7_68
*633 TAP_TAPCELL_ROW_8_69
*634 TAP_TAPCELL_ROW_8_70
*635 TAP_TAPCELL_ROW_8_71
*636 TAP_TAPCELL_ROW_8_72
*637 TAP_TAPCELL_ROW_8_73
*638 TAP_TAPCELL_ROW_8_74
*639 TAP_TAPCELL_ROW_9_75
*640 TAP_TAPCELL_ROW_9_76
*641 TAP_TAPCELL_ROW_9_77
*642 TAP_TAPCELL_ROW_9_78
*643 TAP_TAPCELL_ROW_9_79
*644 TAP_TAPCELL_ROW_9_80
*645 TAP_TAPCELL_ROW_9_81
*646 TAP_TAPCELL_ROW_9_82
*647 TAP_TAPCELL_ROW_9_83
*648 TAP_TAPCELL_ROW_9_84
*649 TAP_TAPCELL_ROW_9_85
*650 _182_
*651 _183_
*652 _184_
*653 _185_
*654 _186_
*655 _187_
*656 _188_
*657 _189_
*658 _190_
*659 _191_
*660 _192_
*661 _193_
*662 _194_
*663 _195_
*664 _196_
*665 _197_
*666 _198_
*667 _199_
*668 _200_
*669 _201_
*670 _202_
*671 _203_
*672 _204_
*673 _205_
*674 _206_
*675 _207_
*676 _208_
*677 _209_
*678 _210_
*679 _211_
*680 _212_
*681 _213_
*682 _214_
*683 _215_
*684 _216_
*685 _217_
*686 _218_
*687 _219_
*688 _220_
*689 _221_
*690 _222_
*691 _223_
*692 _224_
*693 _225_
*694 _226_
*695 _227_
*696 _228_
*697 _229_
*698 _230_
*699 _231_
*700 _232_
*701 _233_
*702 _234_
*703 _235_
*704 _236_
*705 _237_
*706 _238_
*707 _239_
*708 _240_
*709 _241_
*710 _242_
*711 _243_
*712 _244_
*713 _245_
*714 _246_
*715 _247_
*716 _248_
*717 _249_
*718 _250_
*719 _251_
*720 _252_
*721 _253_
*722 _254_
*723 _255_
*724 _256_
*725 _257_
*726 _258_
*727 _259_
*728 _260_
*729 _261_
*730 _262_
*731 _263_
*732 _264_
*733 _265_
*734 _266_
*735 _267_
*736 _268_
*737 _269_
*738 _270_
*739 _271_
*740 _272_
*741 _273_
*742 _274_
*743 _275_
*744 _276_
*745 _277_
*746 _278_
*747 _279_
*748 _280_
*749 _281_
*750 _282_
*751 _283_
*752 _284_
*753 _285_
*754 _286_
*755 _287_
*756 _288_
*757 _289_
*758 _290_
*759 _291_
*760 _292_
*761 _293_
*762 _294_
*763 _295_
*764 _296_
*765 _297_
*766 _298_
*767 _299_
*768 _300_
*769 _301_
*770 _302_
*771 _303_
*772 _304_
*773 _305_
*774 _306_
*775 _307_
*776 _308_
*777 _309_
*778 _310_
*779 _311_
*780 _312_
*781 _313_
*782 _314_
*783 _315_
*784 _316_
*785 _317_
*786 _318_
*787 _319_
*788 _320_
*789 _321_
*790 _322_
*791 _323_
*792 _324_
*793 _325_
*794 _326_
*795 _327_
*796 _328_
*797 _329_
*798 _330_
*799 _331_
*800 _332_
*801 _333_
*802 _334_
*803 _335_
*804 _336_
*805 _337_
*806 _338_
*807 _339_
*808 _340_
*809 _341_
*810 _342_
*811 _343_
*812 _344_
*813 _345_
*814 _346_
*815 _347_
*816 _348_
*817 _349_
*818 _350_
*819 _351_
*820 _352_
*821 _353_
*822 _354_
*823 _355_
*824 _356_
*825 _357_
*826 _358_
*827 _359_
*828 _360_
*829 _361_
*830 _362_
*831 _363_
*832 _364_
*833 _365_
*834 _366_
*835 _367_
*836 _368_
*837 _369_
*838 _370_
*839 _371_
*840 _372_
*841 _373_
*842 _374_
*843 _375_
*844 _376_
*845 _377_
*846 _378_
*847 _379_
*848 _380_
*849 _381_
*850 _382_
*851 _383_
*852 _384_
*853 _385_
*854 _386_
*855 _387_
*856 _388_
*857 _389_
*858 _390_
*859 _391_
*860 _392_
*861 _393_
*862 _394_
*863 _395_
*864 _396_
*865 _397_
*866 _398_
*867 _399_
*868 _400_
*869 _401_
*870 _402_
*871 _403_
*872 _404_
*873 _405_
*874 _406_
*875 _407_
*876 _408_
*877 _409_
*878 _410_
*879 _411_
*880 _412_
*881 _413_
*882 _414_
*883 _415_
*884 _416_
*885 _417_
*886 _418_
*887 _419_
*888 _420_
*889 _421_
*890 _422_
*891 _423_
*892 _424_
*893 _425_
*894 _425__41
*895 _426_
*896 _426__42
*897 _427_
*898 _427__43
*899 _428_
*900 _428__44
*901 _429_
*902 _429__45
*903 _430_
*904 _430__46
*905 _431_
*906 _431__47
*907 _432_
*908 _432__48
*909 _433_
*910 _434_
*911 _435_
*912 _435__49
*913 _436_
*914 _436__50
*915 _437_
*916 _437__51
*917 _438_
*918 _438__52
*919 _439_
*920 _439__53
*921 _440_
*922 _440__54
*923 _441_
*924 _441__55
*925 _442_
*926 _442__56
*927 _443_
*928 _443__57
*929 _444_
*930 _444__58
*931 _445_
*932 _445__59
*933 _446_
*934 _446__60
*935 clkbuf_0_clk
*936 clkbuf_2_0__f_clk
*937 clkbuf_2_1__f_clk
*938 clkbuf_2_2__f_clk
*939 clkbuf_2_3__f_clk
*940 fanout35
*941 fanout36
*942 fanout37
*943 fanout38
*944 fanout39
*945 fanout40
*946 hold1
*947 hold10
*948 hold11
*949 hold12
*950 hold13
*951 hold14
*952 hold15
*953 hold16
*954 hold17
*955 hold18
*956 hold19
*957 hold2
*958 hold20
*959 hold21
*960 hold22
*961 hold23
*962 hold24
*963 hold25
*964 hold26
*965 hold27
*966 hold28
*967 hold29
*968 hold3
*969 hold30
*970 hold31
*971 hold32
*972 hold33
*973 hold34
*974 hold35
*975 hold36
*976 hold37
*977 hold38
*978 hold39
*979 hold4
*980 hold40
*981 hold41
*982 hold42
*983 hold43
*984 hold44
*985 hold45
*986 hold5
*987 hold6
*988 hold7
*989 hold8
*990 hold9
*991 input1
*992 input10
*993 input11
*994 input12
*995 input2
*996 input3
*997 input4
*998 input5
*999 input6
*1000 input7
*1001 input8
*1002 input9
*1003 output13
*1004 output14
*1005 output15
*1006 output16
*1007 output17
*1008 output18
*1009 output19
*1010 output20
*1011 output21
*1012 output22
*1013 output23
*1014 output24
*1015 output25
*1016 output26
*1017 output27
*1018 output28
*1019 output29
*1020 output30
*1021 output31
*1022 output32
*1023 output33
*1024 output34

*PORTS
PADDR[0] O
PADDR[1] O
PADDR[2] O
PADDR[3] O
PADDR[4] O
PCLK O
PENABLE O
PRDATA[0] I
PRDATA[1] I
PRDATA[2] I
PRDATA[3] I
PRDATA[4] I
PRDATA[5] I
PRDATA[6] I
PRDATA[7] I
PREADY I
PRESETn O
PSEL O
PWDATA[0] O
PWDATA[1] O
PWDATA[2] O
PWDATA[3] O
PWDATA[4] O
PWDATA[5] O
PWDATA[6] O
PWDATA[7] O
PWRITE O
clk I
ena I
rst_n I
ui_in[0] I
ui_in[1] I
ui_in[2] I
ui_in[3] I
ui_in[4] I
ui_in[5] I
ui_in[6] I
ui_in[7] I
uio_in[0] I
uio_in[1] I
uio_in[2] I
uio_in[3] I
uio_in[4] I
uio_in[5] I
uio_in[6] I
uio_in[7] I
uio_oe[0] O
uio_oe[1] O
uio_oe[2] O
uio_oe[3] O
uio_oe[4] O
uio_oe[5] O
uio_oe[6] O
uio_oe[7] O
uio_out[0] O
uio_out[1] O
uio_out[2] O
uio_out[3] O
uio_out[4] O
uio_out[5] O
uio_out[6] O
uio_out[7] O
uo_out[0] O
uo_out[1] O
uo_out[2] O
uo_out[3] O
uo_out[4] O
uo_out[5] O
uo_out[6] O
uo_out[7] O

*D_NET *1 0.00591058
*CONN
*P PADDR[0] O
*I *1003:X O *D sky130_fd_sc_hd__buf_2
*CAP
1 PADDR[0] 0.00161544
2 *1003:X 0.00161544
3 PADDR[0] PADDR[1] 0.000981016
4 PADDR[0] *655:A 4.00719e-05
5 PADDR[0] *659:A1 0.000112123
6 PADDR[0] *659:A2 0
7 PADDR[0] *661:A1 0
8 PADDR[0] *662:D 0
9 PADDR[0] *671:C 1.92979e-05
10 PADDR[0] *819:A1 0.000127817
11 PADDR[0] *827:B1 2.50049e-05
12 PADDR[0] *844:D 0
13 PADDR[0] *944:A 7.23533e-05
14 PADDR[0] *1020:A 0
15 PADDR[0] *241:35 0.000287275
16 PADDR[0] *242:20 0.000659962
17 PADDR[0] *294:18 0
18 PADDR[0] *294:24 0
19 PADDR[0] *295:18 0.000144538
20 PADDR[0] *311:12 5.85502e-05
21 PADDR[0] *312:48 0
22 PADDR[0] *313:10 6.20902e-05
23 PADDR[0] *330:23 0
24 PADDR[0] *338:18 5.79676e-05
25 PADDR[0] *341:19 3.16237e-05
*RES
1 *1003:X PADDR[0] 19.7008 
*END

*D_NET *2 0.00830644
*CONN
*P PADDR[1] O
*I *1004:X O *D sky130_fd_sc_hd__buf_2
*CAP
1 PADDR[1] 0.0016798
2 *1004:X 0.0016798
3 PADDR[1] PADDR[3] 0.000566856
4 PADDR[1] PRESETn 0.000323144
5 PADDR[1] PSEL 7.23602e-05
6 PADDR[1] *665:A 0.000530435
7 PADDR[1] *666:A 0.000130908
8 PADDR[1] *666:B 0.000200324
9 PADDR[1] *669:B1 0.000469804
10 PADDR[1] *817:B1 1.97885e-05
11 PADDR[1] *819:A1 0.0010344
12 PADDR[1] *827:A2 3.64998e-06
13 PADDR[1] *829:C1 4.98027e-05
14 PADDR[1] *891:A 4.92206e-05
15 PADDR[1] *1004:A 8.73389e-06
16 PADDR[1] *1010:A 0.000150298
17 PADDR[1] *1011:A 5.11148e-06
18 PADDR[1] *1020:A 8.26058e-05
19 PADDR[1] *242:20 0.000258261
20 PADDR[1] *243:28 1.0121e-05
21 PADDR[1] *312:48 0
22 PADDR[0] PADDR[1] 0.000981016
*RES
1 *1004:X PADDR[1] 22.3836 
*END

*D_NET *3 0.00185612
*CONN
*P PADDR[2] O
*I *1005:X O *D sky130_fd_sc_hd__buf_2
*CAP
1 PADDR[2] 0.000433137
2 *1005:X 0.000433137
3 PADDR[2] PADDR[3] 0.000481399
4 PADDR[2] *826:A2 0.000112123
5 PADDR[2] *846:D 0.000112234
6 PADDR[2] *1006:A 0
7 PADDR[2] *1020:A 0
8 PADDR[2] *127:48 0.00012969
9 PADDR[2] *241:10 0
10 PADDR[2] *299:126 0.000102916
11 PADDR[2] *313:30 1.45508e-05
12 PADDR[2] *321:35 3.69338e-05
*RES
1 *1005:X PADDR[2] 12.5989 
*END

*D_NET *4 0.00963386
*CONN
*P PADDR[3] O
*I *1006:X O *D sky130_fd_sc_hd__buf_2
*CAP
1 PADDR[3] 0.00195986
2 *1006:X 0.00195986
3 PADDR[3] *667:A1 0.000123629
4 PADDR[3] *724:C1 5.69248e-06
5 PADDR[3] *819:A1 0.00137602
6 PADDR[3] *846:D 0.000101557
7 PADDR[3] *1005:A 0.000383523
8 PADDR[3] *1010:A 6.16226e-06
9 PADDR[3] *1020:A 0.000191579
10 PADDR[3] *176:14 1.88656e-05
11 PADDR[3] *290:12 4.27883e-06
12 PADDR[3] *300:200 2.70428e-05
13 PADDR[3] *313:30 0.000180967
14 PADDR[3] *341:42 0.00224656
15 PADDR[1] PADDR[3] 0.000566856
16 PADDR[2] PADDR[3] 0.000481399
*RES
1 *1006:X PADDR[3] 20.2828 
*END

*D_NET *5 0.00307891
*CONN
*P PADDR[4] O
*I *1007:X O *D sky130_fd_sc_hd__buf_2
*CAP
1 PADDR[4] 0.000890948
2 *1007:X 0.000890948
3 PADDR[4] *673:A 8.63188e-05
4 PADDR[4] *744:B 1.67809e-05
5 PADDR[4] *819:A2 0
6 PADDR[4] *820:B1 2.50702e-05
7 PADDR[4] *821:B1 0.000122331
8 PADDR[4] *828:B1 0
9 PADDR[4] *829:A2 0
10 PADDR[4] *830:A2 0.000156179
11 PADDR[4] *832:A2 0
12 PADDR[4] *975:A 7.81037e-05
13 PADDR[4] *1007:A 0.000112617
14 PADDR[4] *1020:A 0
15 PADDR[4] *127:58 0.000192125
16 PADDR[4] *251:8 0.000120655
17 PADDR[4] *295:37 0.000301905
18 PADDR[4] *299:136 1.10085e-05
19 PADDR[4] *338:65 7.39166e-05
*RES
1 *1007:X PADDR[4] 18.9104 
*END

*D_NET *6 0.000784946
*CONN
*P PCLK O
*I *1008:X O *D sky130_fd_sc_hd__clkbuf_1
*CAP
1 PCLK 0.000225687
2 *1008:X 0.000225687
3 PCLK PRESETn 0
4 PCLK PSEL 7.74733e-05
5 PCLK *818:B 0.000185411
6 PCLK *1011:A 7.06865e-05
*RES
1 *1008:X PCLK 8.5189 
*END

*D_NET *7 0.00086567
*CONN
*P PENABLE O
*I *1009:X O *D sky130_fd_sc_hd__buf_2
*CAP
1 PENABLE 0.000368918
2 *1009:X 0.000368918
3 PENABLE PWRITE 0
4 PENABLE *831:A1 0
5 PENABLE *834:A1 6.32377e-05
6 PENABLE *888:CLK 5.66315e-05
7 PENABLE *1009:A 0
8 PENABLE *1020:A 0
9 PENABLE *299:24 7.9642e-06
*RES
1 *1009:X PENABLE 8.57717 
*END

*D_NET *8 0.00496378
*CONN
*P PRDATA[0] I
*I *991:A I *D sky130_fd_sc_hd__clkbuf_1
*CAP
1 PRDATA[0] 0.00157869
2 *991:A 0.00157869
3 *991:A *720:D_N 0
4 *991:A *794:A0 1.7635e-05
5 *991:A *951:A 7.831e-05
6 *991:A *995:A 0.000116947
7 *991:A *996:A 0
8 *991:A *999:A 0
9 *991:A *12:19 0
10 *991:A *395:20 0.00159352
*RES
1 PRDATA[0] *991:A 9.0587 
*END

*D_NET *9 0.00282402
*CONN
*P PRDATA[1] I
*I *995:A I *D sky130_fd_sc_hd__clkbuf_1
*CAP
1 PRDATA[1] 0.00100621
2 *995:A 0.00100621
3 *995:A *764:A1 0.000134535
4 *995:A *764:A2 5.73769e-05
5 *995:A *772:B 0
6 *995:A *790:A1 0.000194855
7 *995:A *866:CLK 0
8 *995:A *911:A 0
9 *995:A *1017:A 0
10 *995:A *193:63 7.13883e-05
11 *995:A *204:26 6.35367e-05
12 *995:A *205:24 0
13 *995:A *205:54 0
14 *995:A *297:10 0
15 *995:A *297:14 0
16 *995:A *298:8 7.35729e-05
17 *995:A *298:22 0
18 *995:A *298:124 0
19 *995:A *324:10 6.74949e-05
20 *995:A *324:20 3.18927e-05
21 *991:A *995:A 0.000116947
*RES
1 PRDATA[1] *995:A 16.8436 
*END

*D_NET *10 0.00490375
*CONN
*P PRDATA[2] I
*I *996:A I *D sky130_fd_sc_hd__clkbuf_1
*CAP
1 PRDATA[2] 0.00148939
2 *996:A 0.00148939
3 *996:A *774:A2 0.00184703
4 *996:A *774:B2 8.53113e-06
5 *996:A *964:A 0
6 *996:A *11:19 6.94058e-05
7 *996:A *208:34 0
8 *991:A *996:A 0
*RES
1 PRDATA[2] *996:A 27.992 
*END

*D_NET *11 0.00671925
*CONN
*P PRDATA[3] I
*I *997:A I *D sky130_fd_sc_hd__clkbuf_1
*I *408:DIODE I *D sky130_fd_sc_hd__diode_2
*CAP
1 PRDATA[3] 0.00178225
2 *997:A 0.000112716
3 *408:DIODE 0
4 *11:19 0.00189496
5 *997:A *1000:A 0.000128119
6 *11:19 *720:A 0
7 *11:19 *759:A 3.21474e-05
8 *11:19 *767:A1 0
9 *11:19 *773:A1 6.03517e-05
10 *11:19 *773:B1 6.2001e-05
11 *11:19 *774:A2 0
12 *11:19 *783:A1 0
13 *11:19 *783:B1 0
14 *11:19 *867:D 0
15 *11:19 *955:A 0.000136339
16 *11:19 *971:A 0.000481016
17 *11:19 *193:122 0.000934241
18 *11:19 *204:98 0
19 *11:19 *225:50 8.07928e-05
20 *11:19 *265:18 0
21 *11:19 *395:20 0.000944913
22 *996:A *11:19 6.94058e-05
*RES
1 PRDATA[3] *11:19 14.0058 
2 *11:19 *408:DIODE 1.6 
3 *11:19 *997:A 3.7 
*END

*D_NET *12 0.00562138
*CONN
*P PRDATA[4] I
*I *406:DIODE I *D sky130_fd_sc_hd__diode_2
*I *998:A I *D sky130_fd_sc_hd__clkbuf_1
*CAP
1 PRDATA[4] 0.00135245
2 *406:DIODE 0.000354573
3 *998:A 6.58706e-05
4 *12:19 0.00177289
5 *406:DIODE *778:A 0.000149759
6 *406:DIODE *779:A1 0.000265265
7 *406:DIODE *857:CLK 2.97004e-06
8 *406:DIODE *858:CLK 3.17967e-05
9 *406:DIODE *859:D 6.97943e-06
10 *406:DIODE *265:10 7.06865e-05
11 *998:A *783:A3 4.80576e-05
12 *998:A *1000:A 0.000112676
13 *998:A *297:40 0
14 *12:19 *773:A2 0
15 *12:19 *774:A2 0.000289613
16 *12:19 *774:A3 0
17 *12:19 *777:A1 5.33085e-05
18 *12:19 *777:A2 8.6739e-05
19 *12:19 *777:A3 6.80106e-05
20 *12:19 *777:B2 0
21 *12:19 *778:A 0.00012775
22 *12:19 *857:CLK 3.11494e-05
23 *12:19 *999:A 0
24 *12:19 *1002:A 0
25 *12:19 *331:30 0.000730837
26 *991:A *12:19 0
*RES
1 PRDATA[4] *12:19 27.7297 
2 *12:19 *998:A 5.31 
3 *12:19 *406:DIODE 9.045 
*END

*D_NET *13 0.00338277
*CONN
*P PRDATA[5] I
*I *999:A I *D sky130_fd_sc_hd__clkbuf_1
*CAP
1 PRDATA[5] 0.00126057
2 *999:A 0.00126057
3 *999:A *650:A 0
4 *999:A *765:B2 6.44772e-05
5 *999:A *767:A1 0
6 *999:A *769:A 0
7 *999:A *771:A2 0
8 *999:A *791:A1 0.000112679
9 *999:A *792:A1 0
10 *999:A *794:A0 0
11 *999:A *853:D 0
12 *999:A *867:D 0
13 *999:A *913:A 7.4027e-05
14 *999:A *915:A 0
15 *999:A *971:A 1.88656e-05
16 *999:A *1000:A 0
17 *999:A *193:99 0
18 *999:A *202:68 1.88602e-05
19 *999:A *202:77 5.93956e-05
20 *999:A *202:92 5.47453e-05
21 *999:A *208:18 6.57949e-06
22 *999:A *264:27 0
23 *999:A *298:80 0
24 *999:A *298:93 0
25 *999:A *327:10 0.000331468
26 *999:A *390:10 0
27 *999:A *395:20 0
28 *999:A *397:10 0.000120526
29 *991:A *999:A 0
30 *12:19 *999:A 0
*RES
1 PRDATA[5] *999:A 22.4937 
*END

*D_NET *14 0.00517357
*CONN
*P PRDATA[6] I
*I *1000:A I *D sky130_fd_sc_hd__clkbuf_1
*CAP
1 PRDATA[6] 0.00178208
2 *1000:A 0.00178208
3 *1000:A *773:A1 4.66108e-05
4 *1000:A *773:B1 0.000140905
5 *1000:A *782:A1 0.000159225
6 *1000:A *782:A2 8.48394e-06
7 *1000:A *783:A3 5.64287e-05
8 *1000:A *856:D 0.000165025
9 *1000:A *867:D 0.000163776
10 *1000:A *868:D 0.000114007
11 *1000:A *952:A 0.000109782
12 *1000:A *1021:A 0
13 *1000:A *193:99 0.000265088
14 *1000:A *193:105 1.45879e-05
15 *1000:A *297:40 0.000124709
16 *1000:A *395:20 0
17 *997:A *1000:A 0.000128119
18 *998:A *1000:A 0.000112676
19 *999:A *1000:A 0
*RES
1 PRDATA[6] *1000:A 32.852 
*END

*D_NET *15 0.00443376
*CONN
*P PRDATA[7] I
*I *1001:A I *D sky130_fd_sc_hd__clkbuf_1
*CAP
1 PRDATA[7] 0.00162133
2 *1001:A 0.00162133
3 *1001:A *770:B1 5.01206e-05
4 *1001:A *774:B2 4.1977e-05
5 *1001:A *775:B 0
6 *1001:A *778:A 0
7 *1001:A *782:A1 0.000476076
8 *1001:A *783:B2 0
9 *1001:A *855:D 0
10 *1001:A *859:CLK 0.000289853
11 *1001:A *859:D 4.58257e-05
12 *1001:A *964:A 0
13 *1001:A *205:90 0
14 *1001:A *208:34 0
15 *1001:A *297:34 0.000140639
16 *1001:A *395:20 0.000146615
*RES
1 PRDATA[7] *1001:A 21.0567 
*END

*D_NET *16 0.000736621
*CONN
*P PREADY I
*I *1002:A I *D sky130_fd_sc_hd__clkbuf_4
*CAP
1 PREADY 0.000307734
2 *1002:A 0.000307734
3 *1002:A *773:B1 0.000121152
4 *12:19 *1002:A 0
*RES
1 PREADY *1002:A 9.2839 
*END

*D_NET *17 0.00267025
*CONN
*P PRESETn O
*I *1010:X O *D sky130_fd_sc_hd__buf_2
*CAP
1 PRESETn 0.000489831
2 *1010:X 0.000489831
3 PRESETn PSEL 0.000301172
4 PRESETn *661:B1 2.59981e-05
5 PRESETn *674:A 9.81168e-05
6 PRESETn *944:A 0.00048346
7 PRESETn *1010:A 4.76918e-05
8 PRESETn *123:10 4.57897e-05
9 PRESETn *241:35 0
10 PRESETn *295:8 2.54436e-05
11 PRESETn *295:18 5.86464e-05
12 PRESETn *312:48 8.39599e-05
13 PRESETn *330:23 1.0145e-05
14 PRESETn *341:19 5.4003e-05
15 PRESETn *341:42 0.000133016
16 PADDR[1] PRESETn 0.000323144
17 PCLK PRESETn 0
*RES
1 *1010:X PRESETn 16.8537 
*END

*D_NET *18 0.00245259
*CONN
*P PSEL O
*I *1011:X O *D sky130_fd_sc_hd__buf_2
*CAP
1 PSEL 0.000751187
2 *1011:X 0.000751187
3 PSEL *674:A 9.64569e-05
4 PSEL *1011:A 0.00023241
5 PSEL *312:48 8.15917e-05
6 PSEL *330:23 8.87528e-05
7 PADDR[1] PSEL 7.23602e-05
8 PCLK PSEL 7.74733e-05
9 PRESETn PSEL 0.000301172
*RES
1 *1011:X PSEL 12.5846 
*END

*D_NET *19 0.000853772
*CONN
*P PWDATA[0] O
*I *1012:X O *D sky130_fd_sc_hd__buf_2
*CAP
1 PWDATA[0] 0.000379554
2 *1012:X 0.000379554
3 PWDATA[0] *850:CLK 3.72916e-05
4 PWDATA[0] *850:D 5.2805e-05
5 PWDATA[0] *1012:A 0
6 PWDATA[0] *288:10 4.5668e-06
*RES
1 *1012:X PWDATA[0] 8.94063 
*END

*D_NET *20 0.000718852
*CONN
*P PWDATA[1] O
*I *1013:X O *D sky130_fd_sc_hd__buf_2
*CAP
1 PWDATA[1] 0.000218982
2 *1013:X 0.000218982
3 PWDATA[1] PWDATA[2] 6.76234e-05
4 PWDATA[1] *828:B1 0.000140905
5 PWDATA[1] *831:A1 0
6 PWDATA[1] *1013:A 7.23602e-05
*RES
1 *1013:X PWDATA[1] 6.6537 
*END

*D_NET *21 0.000765081
*CONN
*P PWDATA[2] O
*I *1014:X O *D sky130_fd_sc_hd__buf_2
*CAP
1 PWDATA[2] 0.000271943
2 *1014:X 0.000271943
3 PWDATA[2] PWDATA[3] 0
4 PWDATA[2] *831:A1 0
5 PWDATA[2] *1013:A 0.000114492
6 PWDATA[2] *1014:A 3.90797e-05
7 PWDATA[1] PWDATA[2] 6.76234e-05
*RES
1 *1014:X PWDATA[2] 8.5189 
*END

*D_NET *22 0.000760395
*CONN
*P PWDATA[3] O
*I *1015:X O *D sky130_fd_sc_hd__buf_2
*CAP
1 PWDATA[3] 0.000334652
2 *1015:X 0.000334652
3 PWDATA[3] *831:A1 5.42979e-05
4 PWDATA[3] *841:D 0
5 PWDATA[3] *269:14 3.67924e-05
6 PWDATA[3] *395:20 0
7 PWDATA[2] PWDATA[3] 0
*RES
1 *1015:X PWDATA[3] 8.57717 
*END

*D_NET *23 0.000519511
*CONN
*P PWDATA[4] O
*I *1016:X O *D sky130_fd_sc_hd__buf_2
*CAP
1 PWDATA[4] 0.000177763
2 *1016:X 0.000177763
3 PWDATA[4] *321:12 0.000163985
4 PWDATA[4] *331:30 0
5 PWDATA[4] *395:20 0
*RES
1 *1016:X PWDATA[4] 6.53717 
*END

*D_NET *24 0.00306192
*CONN
*P PWDATA[5] O
*I *1017:X O *D sky130_fd_sc_hd__buf_2
*CAP
1 PWDATA[5] 0.000889384
2 *1017:X 0.000889384
3 PWDATA[5] PWDATA[6] 0
4 PWDATA[5] PWDATA[7] 0.000386226
5 PWDATA[5] *791:A1 0.000265785
6 PWDATA[5] *796:A0 4.99619e-05
7 PWDATA[5] *862:CLK 3.45588e-05
8 PWDATA[5] *862:D 0.000107405
9 PWDATA[5] *947:A 0.000327175
10 PWDATA[5] *225:16 1.08758e-05
11 PWDATA[5] *331:30 6.6373e-05
12 PWDATA[5] *395:20 3.47888e-05
*RES
1 *1017:X PWDATA[5] 21.3201 
*END

*D_NET *25 0.00166798
*CONN
*P PWDATA[6] O
*I *1018:X O *D sky130_fd_sc_hd__buf_2
*CAP
1 PWDATA[6] 0.000719967
2 *1018:X 0.000719967
3 PWDATA[6] PWDATA[7] 0
4 PWDATA[6] *789:A1 0
5 PWDATA[6] *796:A0 0
6 PWDATA[6] *806:S 1.95756e-05
7 PWDATA[6] *808:B 9.00898e-05
8 PWDATA[6] *862:CLK 0
9 PWDATA[6] *862:D 0
10 PWDATA[6] *864:D 0
11 PWDATA[6] *982:A 5.83518e-05
12 PWDATA[6] *1018:A 6.00312e-05
13 PWDATA[6] *395:20 0
14 PWDATA[5] PWDATA[6] 0
*RES
1 *1018:X PWDATA[6] 13.9904 
*END

*D_NET *26 0.00444319
*CONN
*P PWDATA[7] O
*I *1019:X O *D sky130_fd_sc_hd__buf_2
*CAP
1 PWDATA[7] 0.00141829
2 *1019:X 0.00141829
3 PWDATA[7] *790:A1 0.000576853
4 PWDATA[7] *791:A0 4.63796e-05
5 PWDATA[7] *791:A1 1.91597e-05
6 PWDATA[7] *796:A0 8.53113e-06
7 PWDATA[7] *864:D 0.000159964
8 PWDATA[7] *866:D 0.000220874
9 PWDATA[7] *947:A 2.41368e-05
10 PWDATA[7] *1017:A 7.35813e-05
11 PWDATA[7] *225:30 1.12578e-05
12 PWDATA[7] *225:50 7.96389e-05
13 PWDATA[7] *395:20 0
14 PWDATA[5] PWDATA[7] 0.000386226
15 PWDATA[6] PWDATA[7] 0
*RES
1 *1019:X PWDATA[7] 23.7572 
*END

*D_NET *27 0.000529114
*CONN
*P PWRITE O
*I *1020:X O *D sky130_fd_sc_hd__buf_2
*CAP
1 PWRITE 0.000264557
2 *1020:X 0.000264557
3 PWRITE *831:A1 0
4 PENABLE PWRITE 0
*RES
1 *1020:X PWRITE 6.59543 
*END

*D_NET *30 0.0146341
*CONN
*P clk I
*I *935:A I *D sky130_fd_sc_hd__clkbuf_16
*CAP
1 clk 0.00401661
2 *935:A 0.00401661
3 *935:A *655:A 0
4 *935:A *660:B 4.71015e-05
5 *935:A *669:B1 1.82003e-05
6 *935:A *724:C1 0.000181397
7 *935:A *736:A 3.63701e-06
8 *935:A *741:C 1.80149e-05
9 *935:A *741:D_N 0.000128546