*SPEF "ieee 1481-1999"
*DESIGN "RAM8"
*DATE "11:11:11 Fri 11 11, 1111"
*VENDOR "OpenRCX"
*PROGRAM "Parallel Extraction"
*VERSION "1.0"
*DESIGN_FLOW "NAME_SCOPE LOCAL" "PIN_CAP NONE"
*DIVIDER /
*DELIMITER :
*BUS_DELIMITER []
*T_UNIT 1 NS
*C_UNIT 1 PF
*R_UNIT 1 OHM
*L_UNIT 1 HENRY

*NAME_MAP
*1 A0[0]
*2 A0[1]
*3 A0[2]
*4 CLK
*5 Di0[0]
*6 Di0[1]
*7 Di0[2]
*8 Di0[3]
*9 Di0[4]
*10 Di0[5]
*11 Di0[6]
*12 Di0[7]
*13 WORD\[0\]\.W\.BYTE\[0\]\.B\.Do0\[0\]
*14 WORD\[0\]\.W\.BYTE\[0\]\.B\.Do0\[1\]
*15 WORD\[0\]\.W\.BYTE\[0\]\.B\.Do0\[2\]
*16 WORD\[0\]\.W\.BYTE\[0\]\.B\.Do0\[3\]
*17 WORD\[0\]\.W\.BYTE\[0\]\.B\.Do0\[4\]
*18 WORD\[0\]\.W\.BYTE\[0\]\.B\.Do0\[5\]
*19 WORD\[0\]\.W\.BYTE\[0\]\.B\.Do0\[6\]
*20 WORD\[0\]\.W\.BYTE\[0\]\.B\.Do0\[7\]
*21 EN0
*24 WE0
*25 CLKBUF\.X
*26 DEC0\.A_buf\[0\]
*27 DEC0\.A_buf\[1\]
*28 DEC0\.A_buf\[2\]
*29 DEC0\.EN_buf
*30 DEC0\.SEL\[0\]
*31 DEC0\.SEL\[1\]
*32 DEC0\.SEL\[2\]
*33 DEC0\.SEL\[3\]
*34 DEC0\.SEL\[4\]
*35 DEC0\.SEL\[5\]
*36 DEC0\.SEL\[6\]
*37 DEC0\.SEL\[7\]
*38 WEBUF\[0\]\.X
*39 WORD\[0\]\.W\.BYTE\[0\]\.B\.CLK
*40 WORD\[0\]\.W\.BYTE\[0\]\.B\.GCLK
*41 WORD\[0\]\.W\.BYTE\[0\]\.B\.Q_WIRE\[0\]
*42 WORD\[0\]\.W\.BYTE\[0\]\.B\.Q_WIRE\[1\]
*43 WORD\[0\]\.W\.BYTE\[0\]\.B\.Q_WIRE\[2\]
*44 WORD\[0\]\.W\.BYTE\[0\]\.B\.Q_WIRE\[3\]
*45 WORD\[0\]\.W\.BYTE\[0\]\.B\.Q_WIRE\[4\]
*46 WORD\[0\]\.W\.BYTE\[0\]\.B\.Q_WIRE\[5\]
*47 WORD\[0\]\.W\.BYTE\[0\]\.B\.Q_WIRE\[6\]
*48 WORD\[0\]\.W\.BYTE\[0\]\.B\.Q_WIRE\[7\]
*49 WORD\[0\]\.W\.BYTE\[0\]\.B\.SEL0
*50 WORD\[0\]\.W\.BYTE\[0\]\.B\.SEL0_B
*51 WORD\[0\]\.W\.BYTE\[0\]\.B\.WE0_WIRE
*52 WORD\[1\]\.W\.BYTE\[0\]\.B\.CLK
*53 WORD\[1\]\.W\.BYTE\[0\]\.B\.GCLK
*54 WORD\[1\]\.W\.BYTE\[0\]\.B\.Q_WIRE\[0\]
*55 WORD\[1\]\.W\.BYTE\[0\]\.B\.Q_WIRE\[1\]
*56 WORD\[1\]\.W\.BYTE\[0\]\.B\.Q_WIRE\[2\]
*57 WORD\[1\]\.W\.BYTE\[0\]\.B\.Q_WIRE\[3\]
*58 WORD\[1\]\.W\.BYTE\[0\]\.B\.Q_WIRE\[4\]
*59 WORD\[1\]\.W\.BYTE\[0\]\.B\.Q_WIRE\[5\]
*60 WORD\[1\]\.W\.BYTE\[0\]\.B\.Q_WIRE\[6\]
*61 WORD\[1\]\.W\.BYTE\[0\]\.B\.Q_WIRE\[7\]
*62 WORD\[1\]\.W\.BYTE\[0\]\.B\.SEL0
*63 WORD\[1\]\.W\.BYTE\[0\]\.B\.SEL0_B
*64 WORD\[1\]\.W\.BYTE\[0\]\.B\.WE0_WIRE
*65 WORD\[2\]\.W\.BYTE\[0\]\.B\.CLK
*66 WORD\[2\]\.W\.BYTE\[0\]\.B\.GCLK
*67 WORD\[2\]\.W\.BYTE\[0\]\.B\.Q_WIRE\[0\]
*68 WORD\[2\]\.W\.BYTE\[0\]\.B\.Q_WIRE\[1\]
*69 WORD\[2\]\.W\.BYTE\[0\]\.B\.Q_WIRE\[2\]
*70 WORD\[2\]\.W\.BYTE\[0\]\.B\.Q_WIRE\[3\]
*71 WORD\[2\]\.W\.BYTE\[0\]\.B\.Q_WIRE\[4\]
*72 WORD\[2\]\.W\.BYTE\[0\]\.B\.Q_WIRE\[5\]
*73 WORD\[2\]\.W\.BYTE\[0\]\.B\.Q_WIRE\[6\]
*74 WORD\[2\]\.W\.BYTE\[0\]\.B\.Q_WIRE\[7\]
*75 WORD\[2\]\.W\.BYTE\[0\]\.B\.SEL0
*76 WORD\[2\]\.W\.BYTE\[0\]\.B\.SEL0_B
*77 WORD\[2\]\.W\.BYTE\[0\]\.B\.WE0_WIRE
*78 WORD\[3\]\.W\.BYTE\[0\]\.B\.CLK
*79 WORD\[3\]\.W\.BYTE\[0\]\.B\.GCLK
*80 WORD\[3\]\.W\.BYTE\[0\]\.B\.Q_WIRE\[0\]
*81 WORD\[3\]\.W\.BYTE\[0\]\.B\.Q_WIRE\[1\]
*82 WORD\[3\]\.W\.BYTE\[0\]\.B\.Q_WIRE\[2\]
*83 WORD\[3\]\.W\.BYTE\[0\]\.B\.Q_WIRE\[3\]
*84 WORD\[3\]\.W\.BYTE\[0\]\.B\.Q_WIRE\[4\]
*85 WORD\[3\]\.W\.BYTE\[0\]\.B\.Q_WIRE\[5\]
*86 WORD\[3\]\.W\.BYTE\[0\]\.B\.Q_WIRE\[6\]
*87 WORD\[3\]\.W\.BYTE\[0\]\.B\.Q_WIRE\[7\]
*88 WORD\[3\]\.W\.BYTE\[0\]\.B\.SEL0
*89 WORD\[3\]\.W\.BYTE\[0\]\.B\.SEL0_B
*90 WORD\[3\]\.W\.BYTE\[0\]\.B\.WE0_WIRE
*91 WORD\[4\]\.W\.BYTE\[0\]\.B\.CLK
*92 WORD\[4\]\.W\.BYTE\[0\]\.B\.GCLK
*93 WORD\[4\]\.W\.BYTE\[0\]\.B\.Q_WIRE\[0\]
*94 WORD\[4\]\.W\.BYTE\[0\]\.B\.Q_WIRE\[1\]
*95 WORD\[4\]\.W\.BYTE\[0\]\.B\.Q_WIRE\[2\]
*96 WORD\[4\]\.W\.BYTE\[0\]\.B\.Q_WIRE\[3\]
*97 WORD\[4\]\.W\.BYTE\[0\]\.B\.Q_WIRE\[4\]
*98 WORD\[4\]\.W\.BYTE\[0\]\.B\.Q_WIRE\[5\]
*99 WORD\[4\]\.W\.BYTE\[0\]\.B\.Q_WIRE\[6\]
*100 WORD\[4\]\.W\.BYTE\[0\]\.B\.Q_WIRE\[7\]
*101 WORD\[4\]\.W\.BYTE\[0\]\.B\.SEL0
*102 WORD\[4\]\.W\.BYTE\[0\]\.B\.SEL0_B
*103 WORD\[4\]\.W\.BYTE\[0\]\.B\.WE0_WIRE
*104 WORD\[5\]\.W\.BYTE\[0\]\.B\.CLK
*105 WORD\[5\]\.W\.BYTE\[0\]\.B\.GCLK
*106 WORD\[5\]\.W\.BYTE\[0\]\.B\.Q_WIRE\[0\]
*107 WORD\[5\]\.W\.BYTE\[0\]\.B\.Q_WIRE\[1\]
*108 WORD\[5\]\.W\.BYTE\[0\]\.B\.Q_WIRE\[2\]
*109 WORD\[5\]\.W\.BYTE\[0\]\.B\.Q_WIRE\[3\]
*110 WORD\[5\]\.W\.BYTE\[0\]\.B\.Q_WIRE\[4\]
*111 WORD\[5\]\.W\.BYTE\[0\]\.B\.Q_WIRE\[5\]
*112 WORD\[5\]\.W\.BYTE\[0\]\.B\.Q_WIRE\[6\]
*113 WORD\[5\]\.W\.BYTE\[0\]\.B\.Q_WIRE\[7\]
*114 WORD\[5\]\.W\.BYTE\[0\]\.B\.SEL0
*115 WORD\[5\]\.W\.BYTE\[0\]\.B\.SEL0_B
*116 WORD\[5\]\.W\.BYTE\[0\]\.B\.WE0_WIRE
*117 WORD\[6\]\.W\.BYTE\[0\]\.B\.CLK
*118 WORD\[6\]\.W\.BYTE\[0\]\.B\.GCLK
*119 WORD\[6\]\.W\.BYTE\[0\]\.B\.Q_WIRE\[0\]
*120 WORD\[6\]\.W\.BYTE\[0\]\.B\.Q_WIRE\[1\]
*121 WORD\[6\]\.W\.BYTE\[0\]\.B\.Q_WIRE\[2\]
*122 WORD\[6\]\.W\.BYTE\[0\]\.B\.Q_WIRE\[3\]
*123 WORD\[6\]\.W\.BYTE\[0\]\.B\.Q_WIRE\[4\]
*124 WORD\[6\]\.W\.BYTE\[0\]\.B\.Q_WIRE\[5\]
*125 WORD\[6\]\.W\.BYTE\[0\]\.B\.Q_WIRE\[6\]
*126 WORD\[6\]\.W\.BYTE\[0\]\.B\.Q_WIRE\[7\]
*127 WORD\[6\]\.W\.BYTE\[0\]\.B\.SEL0
*128 WORD\[6\]\.W\.BYTE\[0\]\.B\.SEL0_B
*129 WORD\[6\]\.W\.BYTE\[0\]\.B\.WE0_WIRE
*130 WORD\[7\]\.W\.BYTE\[0\]\.B\.CLK
*131 WORD\[7\]\.W\.BYTE\[0\]\.B\.GCLK
*132 WORD\[7\]\.W\.BYTE\[0\]\.B\.Q_WIRE\[0\]
*133 WORD\[7\]\.W\.BYTE\[0\]\.B\.Q_WIRE\[1\]
*134 WORD\[7\]\.W\.BYTE\[0\]\.B\.Q_WIRE\[2\]
*135 WORD\[7\]\.W\.BYTE\[0\]\.B\.Q_WIRE\[3\]
*136 WORD\[7\]\.W\.BYTE\[0\]\.B\.Q_WIRE\[4\]
*137 WORD\[7\]\.W\.BYTE\[0\]\.B\.Q_WIRE\[5\]
*138 WORD\[7\]\.W\.BYTE\[0\]\.B\.Q_WIRE\[6\]
*139 WORD\[7\]\.W\.BYTE\[0\]\.B\.Q_WIRE\[7\]
*140 WORD\[7\]\.W\.BYTE\[0\]\.B\.SEL0
*141 WORD\[7\]\.W\.BYTE\[0\]\.B\.SEL0_B
*142 WORD\[7\]\.W\.BYTE\[0\]\.B\.WE0_WIRE
*143 CLKBUF\.__cell__
*144 DEC0\.ABUF\[0\]
*145 DEC0\.ABUF\[1\]
*146 DEC0\.ABUF\[2\]
*147 DEC0\.AND0
*148 DEC0\.AND1
*149 DEC0\.AND2
*150 DEC0\.AND3
*151 DEC0\.AND4
*152 DEC0\.AND5
*153 DEC0\.AND6
*154 DEC0\.AND7
*155 DEC0\.ENBUF
*156 WEBUF\[0\]\.__cell__
*157 WORD\[0\]\.W\.BYTE\[0\]\.B\.BIT\[0\]\.OBUF0
*158 WORD\[0\]\.W\.BYTE\[0\]\.B\.BIT\[0\]\.genblk1\.STORAGE
*159 WORD\[0\]\.W\.BYTE\[0\]\.B\.BIT\[1\]\.OBUF0
*160 WORD\[0\]\.W\.BYTE\[0\]\.B\.BIT\[1\]\.genblk1\.STORAGE
*161 WORD\[0\]\.W\.BYTE\[0\]\.B\.BIT\[2\]\.OBUF0
*162 WORD\[0\]\.W\.BYTE\[0\]\.B\.BIT\[2\]\.genblk1\.STORAGE
*163 WORD\[0\]\.W\.BYTE\[0\]\.B\.BIT\[3\]\.OBUF0
*164 WORD\[0\]\.W\.BYTE\[0\]\.B\.BIT\[3\]\.genblk1\.STORAGE
*165 WORD\[0\]\.W\.BYTE\[0\]\.B\.BIT\[4\]\.OBUF0
*166 WORD\[0\]\.W\.BYTE\[0\]\.B\.BIT\[4\]\.genblk1\.STORAGE
*167 WORD\[0\]\.W\.BYTE\[0\]\.B\.BIT\[5\]\.OBUF0
*168 WORD\[0\]\.W\.BYTE\[0\]\.B\.BIT\[5\]\.genblk1\.STORAGE
*169 WORD\[0\]\.W\.BYTE\[0\]\.B\.BIT\[6\]\.OBUF0
*170 WORD\[0\]\.W\.BYTE\[0\]\.B\.BIT\[6\]\.genblk1\.STORAGE
*171 WORD\[0\]\.W\.BYTE\[0\]\.B\.BIT\[7\]\.OBUF0
*172 WORD\[0\]\.W\.BYTE\[0\]\.B\.BIT\[7\]\.genblk1\.STORAGE
*173 WORD\[0\]\.W\.BYTE\[0\]\.B\.CGAND
*174 WORD\[0\]\.W\.BYTE\[0\]\.B\.DIODE_CLK
*175 WORD\[0\]\.W\.BYTE\[0\]\.B\.SEL0INV
*176 WORD\[0\]\.W\.BYTE\[0\]\.B\.genblk1\.CG
*177 WORD\[0\]\.W\.CLKBUF
*178 WORD\[0\]\.W\.SEL0BUF
*179 WORD\[1\]\.W\.BYTE\[0\]\.B\.BIT\[0\]\.OBUF0
*180 WORD\[1\]\.W\.BYTE\[0\]\.B\.BIT\[0\]\.genblk1\.STORAGE
*181 WORD\[1\]\.W\.BYTE\[0\]\.B\.BIT\[1\]\.OBUF0
*182 WORD\[1\]\.W\.BYTE\[0\]\.B\.BIT\[1\]\.genblk1\.STORAGE
*183 WORD\[1\]\.W\.BYTE\[0\]\.B\.BIT\[2\]\.OBUF0
*184 WORD\[1\]\.W\.BYTE\[0\]\.B\.BIT\[2\]\.genblk1\.STORAGE
*185 WORD\[1\]\.W\.BYTE\[0\]\.B\.BIT\[3\]\.OBUF0
*186 WORD\[1\]\.W\.BYTE\[0\]\.B\.BIT\[3\]\.genblk1\.STORAGE
*187 WORD\[1\]\.W\.BYTE\[0\]\.B\.BIT\[4\]\.OBUF0
*188 WORD\[1\]\.W\.BYTE\[0\]\.B\.BIT\[4\]\.genblk1\.STORAGE
*189 WORD\[1\]\.W\.BYTE\[0\]\.B\.BIT\[5\]\.OBUF0
*190 WORD\[1\]\.W\.BYTE\[0\]\.B\.BIT\[5\]\.genblk1\.STORAGE
*191 WORD\[1\]\.W\.BYTE\[0\]\.B\.BIT\[6\]\.OBUF0
*192 WORD\[1\]\.W\.BYTE\[0\]\.B\.BIT\[6\]\.genblk1\.STORAGE
*193 WORD\[1\]\.W\.BYTE\[0\]\.B\.BIT\[7\]\.OBUF0
*194 WORD\[1\]\.W\.BYTE\[0\]\.B\.BIT\[7\]\.genblk1\.STORAGE
*195 WORD\[1\]\.W\.BYTE\[0\]\.B\.CGAND
*196 WORD\[1\]\.W\.BYTE\[0\]\.B\.DIODE_CLK
*197 WORD\[1\]\.W\.BYTE\[0\]\.B\.SEL0INV
*198 WORD\[1\]\.W\.BYTE\[0\]\.B\.genblk1\.CG
*199 WORD\[1\]\.W\.CLKBUF
*200 WORD\[1\]\.W\.SEL0BUF
*201 WORD\[2\]\.W\.BYTE\[0\]\.B\.BIT\[0\]\.OBUF0
*202 WORD\[2\]\.W\.BYTE\[0\]\.B\.BIT\[0\]\.genblk1\.STORAGE
*203 WORD\[2\]\.W\.BYTE\[0\]\.B\.BIT\[1\]\.OBUF0
*204 WORD\[2\]\.W\.BYTE\[0\]\.B\.BIT\[1\]\.genblk1\.STORAGE
*205 WORD\[2\]\.W\.BYTE\[0\]\.B\.BIT\[2\]\.OBUF0
*206 WORD\[2\]\.W\.BYTE\[0\]\.B\.BIT\[2\]\.genblk1\.STORAGE
*207 WORD\[2\]\.W\.BYTE\[0\]\.B\.BIT\[3\]\.OBUF0
*208 WORD\[2\]\.W\.BYTE\[0\]\.B\.BIT\[3\]\.genblk1\.STORAGE
*209 WORD\[2\]\.W\.BYTE\[0\]\.B\.BIT\[4\]\.OBUF0
*210 WORD\[2\]\.W\.BYTE\[0\]\.B\.BIT\[4\]\.genblk1\.STORAGE
*211 WORD\[2\]\.W\.BYTE\[0\]\.B\.BIT\[5\]\.OBUF0
*212 WORD\[2\]\.W\.BYTE\[0\]\.B\.BIT\[5\]\.genblk1\.STORAGE
*213 WORD\[2\]\.W\.BYTE\[0\]\.B\.BIT\[6\]\.OBUF0
*214 WORD\[2\]\.W\.BYTE\[0\]\.B\.BIT\[6\]\.genblk1\.STORAGE
*215 WORD\[2\]\.W\.BYTE\[0\]\.B\.BIT\[7\]\.OBUF0
*216 WORD\[2\]\.W\.BYTE\[0\]\.B\.BIT\[7\]\.genblk1\.STORAGE
*217 WORD\[2\]\.W\.BYTE\[0\]\.B\.CGAND
*218 WORD\[2\]\.W\.BYTE\[0\]\.B\.DIODE_CLK
*219 WORD\[2\]\.W\.BYTE\[0\]\.B\.SEL0INV
*220 WORD\[2\]\.W\.BYTE\[0\]\.B\.genblk1\.CG
*221 WORD\[2\]\.W\.CLKBUF
*222 WORD\[2\]\.W\.SEL0BUF
*223 WORD\[3\]\.W\.BYTE\[0\]\.B\.BIT\[0\]\.OBUF0
*224 WORD\[3\]\.W\.BYTE\[0\]\.B\.BIT\[0\]\.genblk1\.STORAGE
*225 WORD\[3\]\.W\.BYTE\[0\]\.B\.BIT\[1\]\.OBUF0
*226 WORD\[3\]\.W\.BYTE\[0\]\.B\.BIT\[1\]\.genblk1\.STORAGE
*227 WORD\[3\]\.W\.BYTE\[0\]\.B\.BIT\[2\]\.OBUF0
*228 WORD\[3\]\.W\.BYTE\[0\]\.B\.BIT\[2\]\.genblk1\.STORAGE
*229 WORD\[3\]\.W\.BYTE\[0\]\.B\.BIT\[3\]\.OBUF0
*230 WORD\[3\]\.W\.BYTE\[0\]\.B\.BIT\[3\]\.genblk1\.STORAGE
*231 WORD\[3\]\.W\.BYTE\[0\]\.B\.BIT\[4\]\.OBUF0
*232 WORD\[3\]\.W\.BYTE\[0\]\.B\.BIT\[4\]\.genblk1\.STORAGE
*233 WORD\[3\]\.W\.BYTE\[0\]\.B\.BIT\[5\]\.OBUF0
*234 WORD\[3\]\.W\.BYTE\[0\]\.B\.BIT\[5\]\.genblk1\.STORAGE
*235 WORD\[3\]\.W\.BYTE\[0\]\.B\.BIT\[6\]\.OBUF0
*236 WORD\[3\]\.W\.BYTE\[0\]\.B\.BIT\[6\]\.genblk1\.STORAGE
*237 WORD\[3\]\.W\.BYTE\[0\]\.B\.BIT\[7\]\.OBUF0
*238 WORD\[3\]\.W\.BYTE\[0\]\.B\.BIT\[7\]\.genblk1\.STORAGE
*239 WORD\[3\]\.W\.BYTE\[0\]\.B\.CGAND
*240 WORD\[3\]\.W\.BYTE\[0\]\.B\.DIODE_CLK
*241 WORD\[3\]\.W\.BYTE\[0\]\.B\.SEL0INV
*242 WORD\[3\]\.W\.BYTE\[0\]\.B\.genblk1\.CG
*243 WORD\[3\]\.W\.CLKBUF
*244 WORD\[3\]\.W\.SEL0BUF
*245 WORD\[4\]\.W\.BYTE\[0\]\.B\.BIT\[0\]\.OBUF0
*246 WORD\[4\]\.W\.BYTE\[0\]\.B\.BIT\[0\]\.genblk1\.STORAGE
*247 WORD\[4\]\.W\.BYTE\[0\]\.B\.BIT\[1\]\.OBUF0
*248 WORD\[4\]\.W\.BYTE\[0\]\.B\.BIT\[1\]\.genblk1\.STORAGE
*249 WORD\[4\]\.W\.BYTE\[0\]\.B\.BIT\[2\]\.OBUF0
*250 WORD\[4\]\.W\.BYTE\[0\]\.B\.BIT\[2\]\.genblk1\.STORAGE
*251 WORD\[4\]\.W\.BYTE\[0\]\.B\.BIT\[3\]\.OBUF0
*252 WORD\[4\]\.W\.BYTE\[0\]\.B\.BIT\[3\]\.genblk1\.STORAGE
*253 WORD\[4\]\.W\.BYTE\[0\]\.B\.BIT\[4\]\.OBUF0
*254 WORD\[4\]\.W\.BYTE\[0\]\.B\.BIT\[4\]\.genblk1\.STORAGE
*255 WORD\[4\]\.W\.BYTE\[0\]\.B\.BIT\[5\]\.OBUF0
*256 WORD\[4\]\.W\.BYTE\[0\]\.B\.BIT\[5\]\.genblk1\.STORAGE
*257 WORD\[4\]\.W\.BYTE\[0\]\.B\.BIT\[6\]\.OBUF0
*258 WORD\[4\]\.W\.BYTE\[0\]\.B\.BIT\[6\]\.genblk1\.STORAGE
*259 WORD\[4\]\.W\.BYTE\[0\]\.B\.BIT\[7\]\.OBUF0
*260 WORD\[4\]\.W\.BYTE\[0\]\.B\.BIT\[7\]\.genblk1\.STORAGE
*261 WORD\[4\]\.W\.BYTE\[0\]\.B\.CGAND
*262 WORD\[4\]\.W\.BYTE\[0\]\.B\.DIODE_CLK
*263 WORD\[4\]\.W\.BYTE\[0\]\.B\.SEL0INV
*264 WORD\[4\]\.W\.BYTE\[0\]\.B\.genblk1\.CG
*265 WORD\[4\]\.W\.CLKBUF
*266 WORD\[4\]\.W\.SEL0BUF
*267 WORD\[5\]\.W\.BYTE\[0\]\.B\.BIT\[0\]\.OBUF0
*268 WORD\[5\]\.W\.BYTE\[0\]\.B\.BIT\[0\]\.genblk1\.STORAGE
*269 WORD\[5\]\.W\.BYTE\[0\]\.B\.BIT\[1\]\.OBUF0
*270 WORD\[5\]\.W\.BYTE\[0\]\.B\.BIT\[1\]\.genblk1\.STORAGE
*271 WORD\[5\]\.W\.BYTE\[0\]\.B\.BIT\[2\]\.OBUF0
*272 WORD\[5\]\.W\.BYTE\[0\]\.B\.BIT\[2\]\.genblk1\.STORAGE
*273 WORD\[5\]\.W\.BYTE\[0\]\.B\.BIT\[3\]\.OBUF0
*274 WORD\[5\]\.W\.BYTE\[0\]\.B\.BIT\[3\]\.genblk1\.STORAGE
*275 WORD\[5\]\.W\.BYTE\[0\]\.B\.BIT\[4\]\.OBUF0
*276 WORD\[5\]\.W\.BYTE\[0\]\.B\.BIT\[4\]\.genblk1\.STORAGE
*277 WORD\[5\]\.W\.BYTE\[0\]\.B\.BIT\[5\]\.OBUF0
*278 WORD\[5\]\.W\.BYTE\[0\]\.B\.BIT\[5\]\.genblk1\.STORAGE
*279 WORD\[5\]\.W\.BYTE\[0\]\.B\.BIT\[6\]\.OBUF0
*280 WORD\[5\]\.W\.BYTE\[0\]\.B\.BIT\[6\]\.genblk1\.STORAGE
*281 WORD\[5\]\.W\.BYTE\[0\]\.B\.BIT\[7\]\.OBUF0
*282 WORD\[5\]\.W\.BYTE\[0\]\.B\.BIT\[7\]\.genblk1\.STORAGE
*283 WORD\[5\]\.W\.BYTE\[0\]\.B\.CGAND
*284 WORD\[5\]\.W\.BYTE\[0\]\.B\.DIODE_CLK
*285 WORD\[5\]\.W\.BYTE\[0\]\.B\.SEL0INV
*286 WORD\[5\]\.W\.BYTE\[0\]\.B\.genblk1\.CG
*287 WORD\[5\]\.W\.CLKBUF
*288 WORD\[5\]\.W\.SEL0BUF
*289 WORD\[6\]\.W\.BYTE\[0\]\.B\.BIT\[0\]\.OBUF0
*290 WORD\[6\]\.W\.BYTE\[0\]\.B\.BIT\[0\]\.genblk1\.STORAGE
*291 WORD\[6\]\.W\.BYTE\[0\]\.B\.BIT\[1\]\.OBUF0
*292 WORD\[6\]\.W\.BYTE\[0\]\.B\.BIT\[1\]\.genblk1\.STORAGE
*293 WORD\[6\]\.W\.BYTE\[0\]\.B\.BIT\[2\]\.OBUF0
*294 WORD\[6\]\.W\.BYTE\[0\]\.B\.BIT\[2\]\.genblk1\.STORAGE
*295 WORD\[6\]\.W\.BYTE\[0\]\.B\.BIT\[3\]\.OBUF0
*296 WORD\[6\]\.W\.BYTE\[0\]\.B\.BIT\[3\]\.genblk1\.STORAGE
*297 WORD\[6\]\.W\.BYTE\[0\]\.B\.BIT\[4\]\.OBUF0
*298 WORD\[6\]\.W\.BYTE\[0\]\.B\.BIT\[4\]\.genblk1\.STORAGE
*299 WORD\[6\]\.W\.BYTE\[0\]\.B\.BIT\[5\]\.OBUF0
*300 WORD\[6\]\.W\.BYTE\[0\]\.B\.BIT\[5\]\.genblk1\.STORAGE
*301 WORD\[6\]\.W\.BYTE\[0\]\.B\.BIT\[6\]\.OBUF0
*302 WORD\[6\]\.W\.BYTE\[0\]\.B\.BIT\[6\]\.genblk1\.STORAGE
*303 WORD\[6\]\.W\.BYTE\[0\]\.B\.BIT\[7\]\.OBUF0
*304 WORD\[6\]\.W\.BYTE\[0\]\.B\.BIT\[7\]\.genblk1\.STORAGE
*305 WORD\[6\]\.W\.BYTE\[0\]\.B\.CGAND
*306 WORD\[6\]\.W\.BYTE\[0\]\.B\.DIODE_CLK
*307 WORD\[6\]\.W\.BYTE\[0\]\.B\.SEL0INV
*308 WORD\[6\]\.W\.BYTE\[0\]\.B\.genblk1\.CG
*309 WORD\[6\]\.W\.CLKBUF
*310 WORD\[6\]\.W\.SEL0BUF
*311 WORD\[7\]\.W\.BYTE\[0\]\.B\.BIT\[0\]\.OBUF0
*312 WORD\[7\]\.W\.BYTE\[0\]\.B\.BIT\[0\]\.genblk1\.STORAGE
*313 WORD\[7\]\.W\.BYTE\[0\]\.B\.BIT\[1\]\.OBUF0
*314 WORD\[7\]\.W\.BYTE\[0\]\.B\.BIT\[1\]\.genblk1\.STORAGE
*315 WORD\[7\]\.W\.BYTE\[0\]\.B\.BIT\[2\]\.OBUF0
*316 WORD\[7\]\.W\.BYTE\[0\]\.B\.BIT\[2\]\.genblk1\.STORAGE
*317 WORD\[7\]\.W\.BYTE\[0\]\.B\.BIT\[3\]\.OBUF0
*318 WORD\[7\]\.W\.BYTE\[0\]\.B\.BIT\[3\]\.genblk1\.STORAGE
*319 WORD\[7\]\.W\.BYTE\[0\]\.B\.BIT\[4\]\.OBUF0
*320 WORD\[7\]\.W\.BYTE\[0\]\.B\.BIT\[4\]\.genblk1\.STORAGE
*321 WORD\[7\]\.W\.BYTE\[0\]\.B\.BIT\[5\]\.OBUF0
*322 WORD\[7\]\.W\.BYTE\[0\]\.B\.BIT\[5\]\.genblk1\.STORAGE
*323 WORD\[7\]\.W\.BYTE\[0\]\.B\.BIT\[6\]\.OBUF0
*324 WORD\[7\]\.W\.BYTE\[0\]\.B\.BIT\[6\]\.genblk1\.STORAGE
*325 WORD\[7\]\.W\.BYTE\[0\]\.B\.BIT\[7\]\.OBUF0
*326 WORD\[7\]\.W\.BYTE\[0\]\.B\.BIT\[7\]\.genblk1\.STORAGE
*327 WORD\[7\]\.W\.BYTE\[0\]\.B\.CGAND
*328 WORD\[7\]\.W\.BYTE\[0\]\.B\.DIODE_CLK
*329 WORD\[7\]\.W\.BYTE\[0\]\.B\.SEL0INV
*330 WORD\[7\]\.W\.BYTE\[0\]\.B\.genblk1\.CG
*331 WORD\[7\]\.W\.CLKBUF
*332 WORD\[7\]\.W\.SEL0BUF
*333 fill_0_0
*334 fill_1_0
*335 fill_1_1
*336 fill_2_0
*337 fill_2_1
*338 fill_2_2
*339 fill_2_3
*340 fill_2_4
*341 fill_3_0
*342 fill_3_1
*343 fill_3_2
*344 fill_3_3
*345 fill_4_0
*346 fill_4_1
*347 fill_4_2
*348 fill_4_3
*349 fill_4_4
*350 fill_4_5
*351 fill_5_0
*352 fill_5_1
*353 fill_5_2
*354 fill_5_3
*355 fill_6_0
*356 fill_6_1
*357 fill_6_2
*358 fill_6_3
*359 fill_6_4
*360 fill_7_0
*361 fill_7_1
*362 fill_7_2
*363 fill_7_3
*364 fill_7_4
*365 tap_0_0
*366 tap_0_1
*367 tap_0_2
*368 tap_0_3
*369 tap_0_4
*370 tap_0_5
*371 tap_0_6
*372 tap_0_7
*373 tap_0_8
*374 tap_1_0
*375 tap_1_1
*376 tap_1_2
*377 tap_1_3
*378 tap_1_4
*379 tap_1_5
*380 tap_1_6
*381 tap_1_7
*382 tap_1_8
*383 tap_1_9
*384 tap_2_0
*385 tap_2_1
*386 tap_2_2
*387 tap_2_3
*388 tap_2_4
*389 tap_2_5
*390 tap_2_6
*391 tap_2_7
*392 tap_2_8
*393 tap_3_0
*394 tap_3_1
*395 tap_3_2
*396 tap_3_3
*397 tap_3_4
*398 tap_3_5
*399 tap_3_6
*400 tap_3_7
*401 tap_3_8
*402 tap_3_9
*403 tap_4_0
*404 tap_4_1
*405 tap_4_2
*406 tap_4_3
*407 tap_4_4
*408 tap_4_5
*409 tap_4_6
*410 tap_4_7
*411 tap_4_8
*412 tap_5_0
*413 tap_5_1
*414 tap_5_2
*415 tap_5_3
*416 tap_5_4
*417 tap_5_5
*418 tap_5_6
*419 tap_5_7
*420 tap_5_8
*421 tap_5_9
*422 tap_6_0
*423 tap_6_1
*424 tap_6_2
*425 tap_6_3
*426 tap_6_4
*427 tap_6_5
*428 tap_6_6
*429 tap_6_7
*430 tap_6_8
*431 tap_7_0
*432 tap_7_1
*433 tap_7_2
*434 tap_7_3
*435 tap_7_4
*436 tap_7_5
*437 tap_7_6
*438 tap_7_7
*439 tap_7_8
*440 tap_7_9

*PORTS
A0[0] I
A0[1] I
A0[2] I
CLK I
Di0[0] I
Di0[1] I
Di0[2] I
Di0[3] I
Di0[4] I
Di0[5] I
Di0[6] I
Di0[7] I
Do0[0] O
Do0[1] O
Do0[2] O
Do0[3] O
Do0[4] O
Do0[5] O
Do0[6] O
Do0[7] O
EN0 I
WE0 I

*D_NET *1 0.0011937
*CONN
*P A0[0] I
*I *144:A I *D sky130_fd_sc_hd__clkbuf_2
*CAP
1 A0[0] 0.000403914
2 *144:A 0
3 *1:15 0.000403914
4 *1:15 *147:C 0
5 *1:15 *147:D_N 2.30292e-05
6 *1:15 *2:13 0.000130348
7 *1:15 *21:17 8.88395e-05
8 *1:15 *26:6 0.000143655
9 *1:15 *26:19 0
*RES
1 A0[0] *1:15 30.213 
2 *1:15 *144:A 23 
*END

*D_NET *2 0.00129719
*CONN
*P A0[1] I
*I *145:A I *D sky130_fd_sc_hd__clkbuf_2
*CAP
1 A0[1] 0.000287357
2 *145:A 0
3 *2:13 0.000287357
4 *2:13 *3:13 0.000182397
5 *2:13 *21:17 0.000312155
6 *2:13 *27:6 9.75779e-05
7 *1:15 *2:13 0.000130348
*RES
1 A0[1] *2:13 28.621 
2 *2:13 *145:A 23 
*END

*D_NET *3 0.00106812
*CONN
*P A0[2] I
*I *146:A I *D sky130_fd_sc_hd__clkbuf_2
*CAP
1 A0[2] 0.000364447
2 *146:A 0
3 *3:13 0.000364447
4 *3:13 *4:13 3.0153e-05
5 *3:13 *21:17 7.16683e-05
6 *3:13 *26:41 0
7 *3:13 *28:6 5.50106e-05
8 *2:13 *3:13 0.000182397
*RES
1 A0[2] *3:13 28.763 
2 *3:13 *146:A 23 
*END

*D_NET *4 0.00335621
*CONN
*P CLK I
*I *143:A I *D sky130_fd_sc_hd__clkbuf_2
*CAP
1 CLK 0.000724118
2 *143:A 0
3 *4:13 0.000724118
4 *4:13 *147:D_N 3.47781e-05
5 *4:13 *148:D 5.3304e-05
6 *4:13 *24:11 8.40415e-05
7 *4:13 *26:28 9.63642e-05
8 *4:13 *26:30 0.000274495
9 *4:13 *26:41 0.000252685
10 *4:13 *26:60 8.74388e-05
11 *4:13 *27:14 4.96717e-05
12 *4:13 *29:16 0.000269151
13 *4:13 *29:18 0.000136486
14 *4:13 *29:49 0.000164291
15 *4:13 *29:60 0.000148803
16 *4:13 *31:6 0.000226306
17 *3:13 *4:13 3.0153e-05
*RES
1 CLK *4:13 37.4574 
2 *4:13 *143:A 23 
*END

*D_NET *5 0.00444296
*CONN
*P Di0[0] I
*I *312:D I *D sky130_fd_sc_hd__dfxtp_1
*I *290:D I *D sky130_fd_sc_hd__dfxtp_1
*I *268:D I *D sky130_fd_sc_hd__dfxtp_1
*I *246:D I *D sky130_fd_sc_hd__dfxtp_1
*I *224:D I *D sky130_fd_sc_hd__dfxtp_1
*I *202:D I *D sky130_fd_sc_hd__dfxtp_1
*I *180:D I *D sky130_fd_sc_hd__dfxtp_1
*I *158:D I *D sky130_fd_sc_hd__dfxtp_1
*CAP
1 Di0[0] 0.000430472
2 *312:D 0.000219724
3 *290:D 3.45771e-05
4 *268:D 1.38132e-05
5 *246:D 3.45771e-05
6 *224:D 1.38132e-05
7 *202:D 3.45771e-05
8 *180:D 1.38132e-05
9 *158:D 3.04934e-05
10 *5:83 0.000387636
11 *5:72 0.000378037
12 *5:61 0.000398801
13 *5:50 0.000378037
14 *5:39 0.000398801
15 *5:28 0.000372216
16 *5:17 0.000686033
17 *158:D *158:CLK 5.92579e-05
18 *180:D *180:CLK 4.9054e-06
19 *202:D *202:CLK 5.92579e-05
20 *224:D *224:CLK 4.9054e-06
21 *246:D *246:CLK 5.92579e-05
22 *268:D *268:CLK 4.9054e-06
23 *290:D *290:CLK 5.92579e-05
24 *312:D *312:CLK 8.15899e-06
25 *5:17 *157:Z 0
26 *5:17 *158:CLK 0.000357631
*RES
1 Di0[0] *5:17 23.8036 
2 *5:17 *158:D 23.668 
3 *5:17 *5:28 18.6664 
4 *5:28 *180:D 38.1916 
5 *5:28 *5:39 2.25786 
6 *5:39 *202:D 38.668 
7 *5:39 *5:50 3.66643 
8 *5:50 *224:D 38.1916 
9 *5:50 *5:61 2.25786 
10 *5:61 *246:D 38.668 
11 *5:61 *5:72 3.66643 
12 *5:72 *268:D 38.1916 
13 *5:72 *5:83 2.25786 
14 *5:83 *290:D 38.668 
15 *5:83 *312:D 41.858 
*END

*D_NET *6 0.00490334
*CONN
*P Di0[1] I
*I *314:D I *D sky130_fd_sc_hd__dfxtp_1
*I *292:D I *D sky130_fd_sc_hd__dfxtp_1
*I *270:D I *D sky130_fd_sc_hd__dfxtp_1
*I *248:D I *D sky130_fd_sc_hd__dfxtp_1
*I *226:D I *D sky130_fd_sc_hd__dfxtp_1
*I *204:D I *D sky130_fd_sc_hd__dfxtp_1
*I *182:D I *D sky130_fd_sc_hd__dfxtp_1
*I *160:D I *D sky130_fd_sc_hd__dfxtp_1
*CAP
1 Di0[1] 0.000404949
2 *314:D 0.000227108
3 *292:D 2.17499e-05
4 *270:D 9.26771e-06
5 *248:D 2.17499e-05
6 *226:D 9.26771e-06
7 *204:D 1.55139e-05
8 *182:D 9.26771e-06
9 *160:D 1.76188e-05
10 *6:83 0.000392116
11 *6:72 0.000379453
12 *6:61 0.000391935
13 *6:50 0.00038094
14 *6:39 0.000385699
15 *6:28 0.00037648
16 *6:17 0.000648008
17 *160:D *157:TE_B 6.09588e-05
18 *160:D *40:41 1.52322e-05
19 *182:D *179:TE_B 1.64354e-05
20 *182:D *53:48 4.9054e-06
21 *204:D *201:TE_B 5.92579e-05
22 *204:D *66:80 5.92579e-05
23 *226:D *223:TE_B 1.64354e-05
24 *226:D *79:36 4.9054e-06
25 *248:D *245:TE_B 5.92579e-05
26 *248:D *92:33 1.52322e-05
27 *270:D *267:TE_B 1.64354e-05
28 *270:D *105:32 4.9054e-06
29 *292:D *289:TE_B 5.92579e-05
30 *292:D *118:61 1.52322e-05
31 *314:D *311:TE_B 2.13216e-05
32 *314:D *13:30 0
33 *6:17 *157:TE_B 0.000570917
34 *6:17 *159:A 3.71251e-05
35 *6:17 *159:Z 4.70953e-05
36 *6:17 *162:D 0
37 *6:17 *40:41 0.000128051
38 *6:28 *157:Z 0
39 *6:28 *13:38 0
40 *6:39 *13:38 0
41 *6:50 *13:34 0
42 *6:50 *13:36 0
43 *6:50 *13:38 0
44 *6:61 *13:34 0
45 *6:72 *13:30 0
46 *6:72 *13:32 0
47 *6:72 *13:34 0
48 *6:83 *13:30 0
*RES
1 Di0[1] *6:17 27.1386 
2 *6:17 *160:D 23.668 
3 *6:17 *6:28 18.6664 
4 *6:28 *182:D 38.1916 
5 *6:28 *6:39 2.25786 
6 *6:39 *204:D 38.668 
7 *6:39 *6:50 3.66643 
8 *6:50 *226:D 38.1916 
9 *6:50 *6:61 2.25786 
10 *6:61 *248:D 38.668 
11 *6:61 *6:72 3.66643 
12 *6:72 *270:D 38.1916 
13 *6:72 *6:83 2.25786 
14 *6:83 *292:D 38.668 
15 *6:83 *314:D 41.915 
*END

*D_NET *7 0.00725158
*CONN
*P Di0[2] I
*I *316:D I *D sky130_fd_sc_hd__dfxtp_1
*I *294:D I *D sky130_fd_sc_hd__dfxtp_1
*I *272:D I *D sky130_fd_sc_hd__dfxtp_1
*I *250:D I *D sky130_fd_sc_hd__dfxtp_1
*I *228:D I *D sky130_fd_sc_hd__dfxtp_1
*I *206:D I *D sky130_fd_sc_hd__dfxtp_1
*I *184:D I *D sky130_fd_sc_hd__dfxtp_1
*I *162:D I *D sky130_fd_sc_hd__dfxtp_1
*CAP
1 Di0[2] 0.000988817
2 *316:D 0.000265308
3 *294:D 9.098e-05
4 *272:D 7.2179e-05
5 *250:D 4.58569e-05
6 *228:D 3.51255e-05
7 *206:D 3.10291e-05
8 *184:D 3.51255e-05
9 *162:D 0.000115098
10 *7:81 0.000468941
11 *7:70 0.000427327
12 *7:59 0.00043161
13 *7:48 0.000403357
14 *7:37 0.000397774
15 *7:26 0.000343203
16 *7:11 0.00127022
17 *162:D *40:37 5.6508e-05
18 *162:D *50:47 8.42176e-05
19 *184:D *53:46 5.6508e-05
20 *184:D *63:55 0.000146207
21 *206:D *66:66 0.000189681
22 *206:D *76:64 0.000189681
23 *228:D *79:34 5.6508e-05
24 *228:D *89:73 0.000146207
25 *250:D *92:29 5.5114e-05
26 *250:D *102:38 0.000189681
27 *272:D *115:67 0.000146207
28 *294:D *128:44 0.000189681
29 *316:D Do0[1] 0
30 *316:D *14:8 0
31 *316:D *14:18 0
32 *316:D *14:20 0
33 *316:D *131:48 8.13044e-05
34 *316:D *141:92 5.6508e-05
35 *7:11 *161:Z 0
36 *7:11 *8:34 1.536e-05
37 *7:11 *40:37 0.000170252
38 *7:26 *159:Z 0
39 *7:26 *14:28 0
40 *7:37 *14:28 0
41 *7:48 *14:24 0
42 *7:48 *14:26 0
43 *7:59 *14:24 0
44 *7:70 *14:20 0
45 *7:70 *14:22 0
46 *7:70 *14:24 0
47 *7:81 *14:20 0
48 *6:17 *162:D 0
*RES
1 Di0[2] *7:11 18.8936 
2 *7:11 *162:D 40.9984 
3 *7:11 *7:26 2.70321 
4 *7:26 *184:D 39.6209 
5 *7:26 *7:37 2.25786 
6 *7:37 *206:D 40.0973 
7 *7:37 *7:48 3.66643 
8 *7:48 *228:D 39.6209 
9 *7:48 *7:59 2.25786 
10 *7:59 *250:D 40.0973 
11 *7:59 *7:70 4.01857 
12 *7:70 *272:D 39.6209 
13 *7:70 *7:81 1.90571 
14 *7:81 *294:D 40.0973 
15 *7:81 *316:D 43.2873 
*END

*D_NET *8 0.00744713
*CONN
*P Di0[3] I
*I *318:D I *D sky130_fd_sc_hd__dfxtp_1
*I *296:D I *D sky130_fd_sc_hd__dfxtp_1
*I *274:D I *D sky130_fd_sc_hd__dfxtp_1
*I *252:D I *D sky130_fd_sc_hd__dfxtp_1
*I *230:D I *D sky130_fd_sc_hd__dfxtp_1
*I *208:D I *D sky130_fd_sc_hd__dfxtp_1
*I *186:D I *D sky130_fd_sc_hd__dfxtp_1
*I *164:D I *D sky130_fd_sc_hd__dfxtp_1
*CAP
1 Di0[3] 0.00105767
2 *318:D 0.000259904
3 *296:D 4.58569e-05
4 *274:D 3.51255e-05
5 *252:D 4.58569e-05
6 *230:D 3.65002e-05
7 *208:D 3.10291e-05
8 *186:D 3.65002e-05
9 *164:D 4.38149e-05
10 *8:89 0.000449019
11 *8:78 0.00040187
12 *8:67 0.000421499
13 *8:56 0.000413629
14 *8:45 0.000406671
15 *8:34 0.00038044
16 *8:23 0.00129476
17 *164:D *40:35 7.41637e-05
18 *164:D *50:45 0.000108972
19 *186:D *53:44 5.6508e-05
20 *186:D *63:53 0.000125655
21 *208:D *66:52 0.000189681
22 *208:D *76:54 0.000189681
23 *230:D *79:32 5.6508e-05
24 *230:D *89:71 0.000125655
25 *252:D *92:27 5.5114e-05
26 *252:D *102:36 0.000189681
27 *274:D *105:28 5.6508e-05
28 *274:D *115:44 0.000146207
29 *296:D *118:55 5.5114e-05
30 *296:D *128:34 0.000189681
31 *318:D Do0[2] 1.7466e-05
32 *318:D *15:12 0
33 *318:D *15:14 0
34 *318:D *141:82 0.000146207
35 *8:23 *9:33 1.83395e-05
36 *8:23 *9:44 0
37 *8:23 *40:35 0.000171468
38 *8:23 *50:45 9.90162e-05
39 *8:34 *161:Z 0
40 *8:34 *15:22 0
41 *8:45 *15:22 0
42 *8:56 *15:18 0
43 *8:56 *15:20 0
44 *8:67 *15:18 0
45 *8:78 *15:14 0
46 *8:78 *15:16 0
47 *8:78 *15:18 0
48 *8:89 *15:14 0
49 *7:11 *8:34 1.536e-05
*RES
1 Di0[3] *8:23 39.1002 
2 *8:23 *164:D 25.0973 
3 *8:23 *8:34 18.3143 
4 *8:34 *186:D 39.6209 
5 *8:34 *8:45 2.25786 
6 *8:45 *208:D 40.0973 
7 *8:45 *8:56 3.66643 
8 *8:56 *230:D 39.6209 
9 *8:56 *8:67 2.25786 
10 *8:67 *252:D 40.0973 
11 *8:67 *8:78 3.66643 
12 *8:78 *274:D 39.6209 
13 *8:78 *8:89 2.25786 
14 *8:89 *296:D 40.0973 
15 *8:89 *318:D 43.2873 
*END

*D_NET *9 0.00684462
*CONN
*P Di0[4] I
*I *320:D I *D sky130_fd_sc_hd__dfxtp_1
*I *298:D I *D sky130_fd_sc_hd__dfxtp_1
*I *276:D I *D sky130_fd_sc_hd__dfxtp_1
*I *254:D I *D sky130_fd_sc_hd__dfxtp_1
*I *232:D I *D sky130_fd_sc_hd__dfxtp_1
*I *210:D I *D sky130_fd_sc_hd__dfxtp_1
*I *188:D I *D sky130_fd_sc_hd__dfxtp_1
*I *166:D I *D sky130_fd_sc_hd__dfxtp_1
*CAP
1 Di0[4] 0.000992891
2 *320:D 0.0002213
3 *298:D 2.17499e-05
4 *276:D 9.26771e-06
5 *254:D 2.17499e-05
6 *232:D 9.26771e-06
7 *210:D 1.55139e-05
8 *188:D 9.26771e-06
9 *166:D 1.76188e-05
10 *9:99 0.000386308
11 *9:88 0.000382022
12 *9:77 0.000394519
13 *9:66 0.000383494
14 *9:55 0.000388254
15 *9:44 0.000391257
16 *9:33 0.000472883
17 *9:21 0.00120795
18 *166:D *40:33 1.52322e-05
19 *166:D *50:43 6.09588e-05
20 *188:D *53:42 4.9054e-06
21 *188:D *63:45 1.64354e-05
22 *210:D *66:38 5.92579e-05
23 *210:D *76:44 5.92579e-05
24 *232:D *79:30 4.9054e-06
25 *232:D *89:63 1.64354e-05
26 *254:D *92:25 1.52322e-05
27 *254:D *102:34 5.92579e-05
28 *276:D *105:26 4.9054e-06
29 *276:D *115:42 1.64354e-05
30 *298:D *118:53 1.52322e-05
31 *298:D *128:30 5.92579e-05
32 *320:D Do0[3] 4.9054e-06
33 *320:D *16:12 0
34 *320:D *16:14 0
35 *320:D *141:72 1.64354e-05
36 *9:21 *165:Z 3.87221e-06
37 *9:21 *167:Z 0
38 *9:21 *168:D 0
39 *9:21 *40:24 0.000231612
40 *9:21 *50:39 0.000268096
41 *9:21 *63:37 0
42 *9:33 *40:33 0.000133588
43 *9:33 *50:43 0.000434745
44 *9:44 *163:Z 0
45 *9:44 *16:22 0
46 *9:55 *16:22 0
47 *9:66 *16:18 0
48 *9:66 *16:20 0
49 *9:66 *16:22 0
50 *9:77 *16:18 0
51 *9:88 *16:14 0
52 *9:88 *16:16 0
53 *9:88 *16:18 0
54 *9:99 *16:14 0
55 *8:23 *9:33 1.83395e-05
56 *8:23 *9:44 0
*RES
1 Di0[4] *9:21 48.5041 
2 *9:21 *9:33 30.4054 
3 *9:33 *166:D 23.668 
4 *9:33 *9:44 18.6664 
5 *9:44 *188:D 38.1916 
6 *9:44 *9:55 2.25786 
7 *9:55 *210:D 38.668 
8 *9:55 *9:66 3.66643 
9 *9:66 *232:D 38.1916 
10 *9:66 *9:77 2.25786 
11 *9:77 *254:D 38.668 
12 *9:77 *9:88 3.66643 
13 *9:88 *276:D 38.1916 
14 *9:88 *9:99 2.25786 
15 *9:99 *298:D 38.668 
16 *9:99 *320:D 41.858 
*END

*D_NET *10 0.00840924
*CONN
*P Di0[5] I
*I *234:D I *D sky130_fd_sc_hd__dfxtp_1
*I *322:D I *D sky130_fd_sc_hd__dfxtp_1
*I *300:D I *D sky130_fd_sc_hd__dfxtp_1
*I *278:D I *D sky130_fd_sc_hd__dfxtp_1
*I *256:D I *D sky130_fd_sc_hd__dfxtp_1
*I *212:D I *D sky130_fd_sc_hd__dfxtp_1
*I *190:D I *D sky130_fd_sc_hd__dfxtp_1
*I *168:D I *D sky130_fd_sc_hd__dfxtp_1
*CAP
1 Di0[5] 0.00156828
2 *234:D 4.46648e-05
3 *322:D 0.000199479
4 *300:D 5.99098e-05
5 *278:D 9.26771e-06
6 *256:D 7.17495e-06
7 *212:D 0
8 *190:D 3.68191e-05
9 *168:D 0.000239794
10 *10:76 0.000410037
11 *10:65 0.000393272
12 *10:52 0.000367866
13 *10:50 0.000430625
14 *10:39 0.000455152
15 *10:24 0.000378904
16 *10:11 0.00195364
17 *168:D *165:Z 0
18 *168:D *40:24 0.00027663
19 *190:D *53:24 0.000238354
20 *190:D *63:37 0.000238354
21 *234:D *79:26 1.74313e-05
22 *234:D *89:55 1.74843e-05
23 *256:D *92:16 1.64354e-05
24 *256:D *102:32 1.64354e-05
25 *278:D *105:20 4.9054e-06
26 *278:D *115:34 1.64354e-05
27 *300:D Do0[4] 4.9054e-06
28 *300:D *17:23 0
29 *300:D *118:47 1.74843e-05
30 *322:D Do0[4] 1.02561e-05
31 *322:D *17:8 0
32 *322:D *17:23 0
33 *322:D *131:34 4.9054e-06
34 *322:D *131:44 0
35 *322:D *141:62 8.15899e-06
36 *10:11 *169:Z 4.45778e-05
37 *10:11 *172:D 0
38 *10:11 *40:10 0.0002003
39 *10:11 *50:39 0.000266798
40 *10:11 *53:16 0.000100082
41 *10:24 *165:Z 0
42 *10:24 *17:31 0
43 *10:24 *59:8 0
44 *10:39 *17:31 0
45 *10:39 *66:32 7.77938e-05
46 *10:39 *76:38 0.00027663
47 *10:50 *17:27 0
48 *10:50 *17:29 0
49 *10:50 *17:31 0
50 *10:52 *17:27 0
51 *10:65 *17:23 0
52 *10:65 *17:25 0
53 *10:65 *17:27 0
54 *10:76 *17:23 0
55 *9:21 *168:D 0
*RES
1 Di0[5] *10:11 20.4392 
2 *10:11 *168:D 42.7798 
3 *10:11 *10:24 2.43393 
4 *10:24 *190:D 40.6307 
5 *10:24 *10:39 19.9559 
6 *10:39 *212:D 23 
7 *10:39 *10:50 19.0186 
8 *10:50 *10:52 1.90571 
9 *10:52 *256:D 38.1916 
10 *10:52 *10:65 4.28786 
11 *10:65 *278:D 38.1916 
12 *10:65 *10:76 2.43393 
13 *10:76 *300:D 39.1341 
14 *10:76 *322:D 41.682 
15 *10:50 *234:D 38.813 
*END

*D_NET *11 0.0104765
*CONN
*P Di0[6] I
*I *324:D I *D sky130_fd_sc_hd__dfxtp_1
*I *302:D I *D sky130_fd_sc_hd__dfxtp_1
*I *258:D I *D sky130_fd_sc_hd__dfxtp_1
*I *236:D I *D sky130_fd_sc_hd__dfxtp_1
*I *214:D I *D sky130_fd_sc_hd__dfxtp_1
*I *192:D I *D sky130_fd_sc_hd__dfxtp_1
*I *170:D I *D sky130_fd_sc_hd__dfxtp_1
*I *280:D I *D sky130_fd_sc_hd__dfxtp_1
*CAP
1 Di0[6] 0.00124594
2 *324:D 0.000300635
3 *302:D 7.28374e-05
4 *258:D 1.06403e-05
5 *236:D 4.55155e-05
6 *214:D 7.17495e-06
7 *192:D 4.92935e-05
8 *170:D 0.000253343
9 *280:D 2.07077e-05
10 *11:111 0.000525093
11 *11:48 0.000423029
12 *11:46 0.000407694
13 *11:44 0.000485158
14 *11:42 0.000400706
15 *11:23 0.000308756
16 *11:21 0.00157712
17 *11:15 0.00261394
18 *170:D *167:Z 0
19 *170:D *40:10 4.9054e-06
20 *170:D *50:18 9.95543e-06
21 *170:D *53:16 3.70187e-05
22 *192:D *53:16 3.70377e-05
23 *192:D *53:24 6.40619e-06
24 *192:D *63:14 1.91007e-05
25 *214:D *66:23 1.64354e-05
26 *214:D *76:36 1.64354e-05
27 *236:D *79:10 5.82444e-05
28 *236:D *79:26 6.40619e-06
29 *236:D *89:32 1.91007e-05
30 *258:D *92:8 4.9054e-06
31 *258:D *102:26 8.15899e-06
32 *280:D *105:14 2.14305e-05
33 *280:D *105:20 4.2534e-06
34 *302:D *118:33 7.41637e-05
35 *302:D *128:26 0.000106058
36 *324:D Do0[5] 5.6508e-05
37 *324:D *18:8 0
38 *324:D *18:10 0
39 *324:D *18:12 0
40 *324:D *141:48 9.84794e-05
41 *11:15 *171:Z 0
42 *11:15 *20:22 4.96811e-06
43 *11:15 *20:28 0
44 *11:21 *279:A 0.00010018
45 *11:21 *279:Z 9.84794e-05