*SPEF "ieee 1481-1999"
*DESIGN "RAM8"
*DATE "11:11:11 Fri 11 11, 1111"
*VENDOR "OpenRCX"
*PROGRAM "Parallel Extraction"
*VERSION "1.0"
*DESIGN_FLOW "NAME_SCOPE LOCAL" "PIN_CAP NONE"
*DIVIDER /
*DELIMITER :
*BUS_DELIMITER []
*T_UNIT 1 NS
*C_UNIT 1 PF
*R_UNIT 1 OHM
*L_UNIT 1 HENRY

*NAME_MAP
*1 A0[0]
*2 A0[1]
*3 A0[2]
*4 CLK
*5 Di0[0]
*6 Di0[1]
*7 Di0[2]
*8 Di0[3]
*9 Di0[4]
*10 Di0[5]
*11 Di0[6]
*12 Di0[7]
*13 WORD\[0\]\.W\.BYTE\[0\]\.B\.Do0\[0\]
*14 WORD\[0\]\.W\.BYTE\[0\]\.B\.Do0\[1\]
*15 WORD\[0\]\.W\.BYTE\[0\]\.B\.Do0\[2\]
*16 WORD\[0\]\.W\.BYTE\[0\]\.B\.Do0\[3\]
*17 WORD\[0\]\.W\.BYTE\[0\]\.B\.Do0\[4\]
*18 WORD\[0\]\.W\.BYTE\[0\]\.B\.Do0\[5\]
*19 WORD\[0\]\.W\.BYTE\[0\]\.B\.Do0\[6\]
*20 WORD\[0\]\.W\.BYTE\[0\]\.B\.Do0\[7\]
*21 EN0
*24 WE0
*25 CLKBUF\.X
*26 DEC0\.A_buf\[0\]
*27 DEC0\.A_buf\[1\]
*28 DEC0\.A_buf\[2\]
*29 DEC0\.EN_buf
*30 DEC0\.SEL\[0\]
*31 DEC0\.SEL\[1\]
*32 DEC0\.SEL\[2\]
*33 DEC0\.SEL\[3\]
*34 DEC0\.SEL\[4\]
*35 DEC0\.SEL\[5\]
*36 DEC0\.SEL\[6\]
*37 DEC0\.SEL\[7\]
*38 WEBUF\[0\]\.X
*39 WORD\[0\]\.W\.BYTE\[0\]\.B\.CLK
*40 WORD\[0\]\.W\.BYTE\[0\]\.B\.CLK_B
*41 WORD\[0\]\.W\.BYTE\[0\]\.B\.GCLK
*42 WORD\[0\]\.W\.BYTE\[0\]\.B\.Q_WIRE\[0\]
*43 WORD\[0\]\.W\.BYTE\[0\]\.B\.Q_WIRE\[1\]
*44 WORD\[0\]\.W\.BYTE\[0\]\.B\.Q_WIRE\[2\]
*45 WORD\[0\]\.W\.BYTE\[0\]\.B\.Q_WIRE\[3\]
*46 WORD\[0\]\.W\.BYTE\[0\]\.B\.Q_WIRE\[4\]
*47 WORD\[0\]\.W\.BYTE\[0\]\.B\.Q_WIRE\[5\]
*48 WORD\[0\]\.W\.BYTE\[0\]\.B\.Q_WIRE\[6\]
*49 WORD\[0\]\.W\.BYTE\[0\]\.B\.Q_WIRE\[7\]
*50 WORD\[0\]\.W\.BYTE\[0\]\.B\.SEL0
*51 WORD\[0\]\.W\.BYTE\[0\]\.B\.SEL0_B
*52 WORD\[0\]\.W\.BYTE\[0\]\.B\.WE0_WIRE
*53 WORD\[1\]\.W\.BYTE\[0\]\.B\.CLK
*54 WORD\[1\]\.W\.BYTE\[0\]\.B\.CLK_B
*55 WORD\[1\]\.W\.BYTE\[0\]\.B\.GCLK
*56 WORD\[1\]\.W\.BYTE\[0\]\.B\.Q_WIRE\[0\]
*57 WORD\[1\]\.W\.BYTE\[0\]\.B\.Q_WIRE\[1\]
*58 WORD\[1\]\.W\.BYTE\[0\]\.B\.Q_WIRE\[2\]
*59 WORD\[1\]\.W\.BYTE\[0\]\.B\.Q_WIRE\[3\]
*60 WORD\[1\]\.W\.BYTE\[0\]\.B\.Q_WIRE\[4\]
*61 WORD\[1\]\.W\.BYTE\[0\]\.B\.Q_WIRE\[5\]
*62 WORD\[1\]\.W\.BYTE\[0\]\.B\.Q_WIRE\[6\]
*63 WORD\[1\]\.W\.BYTE\[0\]\.B\.Q_WIRE\[7\]
*64 WORD\[1\]\.W\.BYTE\[0\]\.B\.SEL0
*65 WORD\[1\]\.W\.BYTE\[0\]\.B\.SEL0_B
*66 WORD\[1\]\.W\.BYTE\[0\]\.B\.WE0_WIRE
*67 WORD\[2\]\.W\.BYTE\[0\]\.B\.CLK
*68 WORD\[2\]\.W\.BYTE\[0\]\.B\.CLK_B
*69 WORD\[2\]\.W\.BYTE\[0\]\.B\.GCLK
*70 WORD\[2\]\.W\.BYTE\[0\]\.B\.Q_WIRE\[0\]
*71 WORD\[2\]\.W\.BYTE\[0\]\.B\.Q_WIRE\[1\]
*72 WORD\[2\]\.W\.BYTE\[0\]\.B\.Q_WIRE\[2\]
*73 WORD\[2\]\.W\.BYTE\[0\]\.B\.Q_WIRE\[3\]
*74 WORD\[2\]\.W\.BYTE\[0\]\.B\.Q_WIRE\[4\]
*75 WORD\[2\]\.W\.BYTE\[0\]\.B\.Q_WIRE\[5\]
*76 WORD\[2\]\.W\.BYTE\[0\]\.B\.Q_WIRE\[6\]
*77 WORD\[2\]\.W\.BYTE\[0\]\.B\.Q_WIRE\[7\]
*78 WORD\[2\]\.W\.BYTE\[0\]\.B\.SEL0
*79 WORD\[2\]\.W\.BYTE\[0\]\.B\.SEL0_B
*80 WORD\[2\]\.W\.BYTE\[0\]\.B\.WE0_WIRE
*81 WORD\[3\]\.W\.BYTE\[0\]\.B\.CLK
*82 WORD\[3\]\.W\.BYTE\[0\]\.B\.CLK_B
*83 WORD\[3\]\.W\.BYTE\[0\]\.B\.GCLK
*84 WORD\[3\]\.W\.BYTE\[0\]\.B\.Q_WIRE\[0\]
*85 WORD\[3\]\.W\.BYTE\[0\]\.B\.Q_WIRE\[1\]
*86 WORD\[3\]\.W\.BYTE\[0\]\.B\.Q_WIRE\[2\]
*87 WORD\[3\]\.W\.BYTE\[0\]\.B\.Q_WIRE\[3\]
*88 WORD\[3\]\.W\.BYTE\[0\]\.B\.Q_WIRE\[4\]
*89 WORD\[3\]\.W\.BYTE\[0\]\.B\.Q_WIRE\[5\]
*90 WORD\[3\]\.W\.BYTE\[0\]\.B\.Q_WIRE\[6\]
*91 WORD\[3\]\.W\.BYTE\[0\]\.B\.Q_WIRE\[7\]
*92 WORD\[3\]\.W\.BYTE\[0\]\.B\.SEL0
*93 WORD\[3\]\.W\.BYTE\[0\]\.B\.SEL0_B
*94 WORD\[3\]\.W\.BYTE\[0\]\.B\.WE0_WIRE
*95 WORD\[4\]\.W\.BYTE\[0\]\.B\.CLK
*96 WORD\[4\]\.W\.BYTE\[0\]\.B\.CLK_B
*97 WORD\[4\]\.W\.BYTE\[0\]\.B\.GCLK
*98 WORD\[4\]\.W\.BYTE\[0\]\.B\.Q_WIRE\[0\]
*99 WORD\[4\]\.W\.BYTE\[0\]\.B\.Q_WIRE\[1\]
*100 WORD\[4\]\.W\.BYTE\[0\]\.B\.Q_WIRE\[2\]
*101 WORD\[4\]\.W\.BYTE\[0\]\.B\.Q_WIRE\[3\]
*102 WORD\[4\]\.W\.BYTE\[0\]\.B\.Q_WIRE\[4\]
*103 WORD\[4\]\.W\.BYTE\[0\]\.B\.Q_WIRE\[5\]
*104 WORD\[4\]\.W\.BYTE\[0\]\.B\.Q_WIRE\[6\]
*105 WORD\[4\]\.W\.BYTE\[0\]\.B\.Q_WIRE\[7\]
*106 WORD\[4\]\.W\.BYTE\[0\]\.B\.SEL0
*107 WORD\[4\]\.W\.BYTE\[0\]\.B\.SEL0_B
*108 WORD\[4\]\.W\.BYTE\[0\]\.B\.WE0_WIRE
*109 WORD\[5\]\.W\.BYTE\[0\]\.B\.CLK
*110 WORD\[5\]\.W\.BYTE\[0\]\.B\.CLK_B
*111 WORD\[5\]\.W\.BYTE\[0\]\.B\.GCLK
*112 WORD\[5\]\.W\.BYTE\[0\]\.B\.Q_WIRE\[0\]
*113 WORD\[5\]\.W\.BYTE\[0\]\.B\.Q_WIRE\[1\]
*114 WORD\[5\]\.W\.BYTE\[0\]\.B\.Q_WIRE\[2\]
*115 WORD\[5\]\.W\.BYTE\[0\]\.B\.Q_WIRE\[3\]
*116 WORD\[5\]\.W\.BYTE\[0\]\.B\.Q_WIRE\[4\]
*117 WORD\[5\]\.W\.BYTE\[0\]\.B\.Q_WIRE\[5\]
*118 WORD\[5\]\.W\.BYTE\[0\]\.B\.Q_WIRE\[6\]
*119 WORD\[5\]\.W\.BYTE\[0\]\.B\.Q_WIRE\[7\]
*120 WORD\[5\]\.W\.BYTE\[0\]\.B\.SEL0
*121 WORD\[5\]\.W\.BYTE\[0\]\.B\.SEL0_B
*122 WORD\[5\]\.W\.BYTE\[0\]\.B\.WE0_WIRE
*123 WORD\[6\]\.W\.BYTE\[0\]\.B\.CLK
*124 WORD\[6\]\.W\.BYTE\[0\]\.B\.CLK_B
*125 WORD\[6\]\.W\.BYTE\[0\]\.B\.GCLK
*126 WORD\[6\]\.W\.BYTE\[0\]\.B\.Q_WIRE\[0\]
*127 WORD\[6\]\.W\.BYTE\[0\]\.B\.Q_WIRE\[1\]
*128 WORD\[6\]\.W\.BYTE\[0\]\.B\.Q_WIRE\[2\]
*129 WORD\[6\]\.W\.BYTE\[0\]\.B\.Q_WIRE\[3\]
*130 WORD\[6\]\.W\.BYTE\[0\]\.B\.Q_WIRE\[4\]
*131 WORD\[6\]\.W\.BYTE\[0\]\.B\.Q_WIRE\[5\]
*132 WORD\[6\]\.W\.BYTE\[0\]\.B\.Q_WIRE\[6\]
*133 WORD\[6\]\.W\.BYTE\[0\]\.B\.Q_WIRE\[7\]
*134 WORD\[6\]\.W\.BYTE\[0\]\.B\.SEL0
*135 WORD\[6\]\.W\.BYTE\[0\]\.B\.SEL0_B
*136 WORD\[6\]\.W\.BYTE\[0\]\.B\.WE0_WIRE
*137 WORD\[7\]\.W\.BYTE\[0\]\.B\.CLK
*138 WORD\[7\]\.W\.BYTE\[0\]\.B\.CLK_B
*139 WORD\[7\]\.W\.BYTE\[0\]\.B\.GCLK
*140 WORD\[7\]\.W\.BYTE\[0\]\.B\.Q_WIRE\[0\]
*141 WORD\[7\]\.W\.BYTE\[0\]\.B\.Q_WIRE\[1\]
*142 WORD\[7\]\.W\.BYTE\[0\]\.B\.Q_WIRE\[2\]
*143 WORD\[7\]\.W\.BYTE\[0\]\.B\.Q_WIRE\[3\]
*144 WORD\[7\]\.W\.BYTE\[0\]\.B\.Q_WIRE\[4\]
*145 WORD\[7\]\.W\.BYTE\[0\]\.B\.Q_WIRE\[5\]
*146 WORD\[7\]\.W\.BYTE\[0\]\.B\.Q_WIRE\[6\]
*147 WORD\[7\]\.W\.BYTE\[0\]\.B\.Q_WIRE\[7\]
*148 WORD\[7\]\.W\.BYTE\[0\]\.B\.SEL0
*149 WORD\[7\]\.W\.BYTE\[0\]\.B\.SEL0_B
*150 WORD\[7\]\.W\.BYTE\[0\]\.B\.WE0_WIRE
*151 CLKBUF\.__cell__
*152 DEC0\.ABUF\[0\]
*153 DEC0\.ABUF\[1\]
*154 DEC0\.ABUF\[2\]
*155 DEC0\.AND0
*156 DEC0\.AND1
*157 DEC0\.AND2
*158 DEC0\.AND3
*159 DEC0\.AND4
*160 DEC0\.AND5
*161 DEC0\.AND6
*162 DEC0\.AND7
*163 DEC0\.ENBUF
*164 WEBUF\[0\]\.__cell__
*165 WORD\[0\]\.W\.BYTE\[0\]\.B\.BIT\[0\]\.OBUF0
*166 WORD\[0\]\.W\.BYTE\[0\]\.B\.BIT\[0\]\.genblk1\.STORAGE
*167 WORD\[0\]\.W\.BYTE\[0\]\.B\.BIT\[1\]\.OBUF0
*168 WORD\[0\]\.W\.BYTE\[0\]\.B\.BIT\[1\]\.genblk1\.STORAGE
*169 WORD\[0\]\.W\.BYTE\[0\]\.B\.BIT\[2\]\.OBUF0
*170 WORD\[0\]\.W\.BYTE\[0\]\.B\.BIT\[2\]\.genblk1\.STORAGE
*171 WORD\[0\]\.W\.BYTE\[0\]\.B\.BIT\[3\]\.OBUF0
*172 WORD\[0\]\.W\.BYTE\[0\]\.B\.BIT\[3\]\.genblk1\.STORAGE
*173 WORD\[0\]\.W\.BYTE\[0\]\.B\.BIT\[4\]\.OBUF0
*174 WORD\[0\]\.W\.BYTE\[0\]\.B\.BIT\[4\]\.genblk1\.STORAGE
*175 WORD\[0\]\.W\.BYTE\[0\]\.B\.BIT\[5\]\.OBUF0
*176 WORD\[0\]\.W\.BYTE\[0\]\.B\.BIT\[5\]\.genblk1\.STORAGE
*177 WORD\[0\]\.W\.BYTE\[0\]\.B\.BIT\[6\]\.OBUF0
*178 WORD\[0\]\.W\.BYTE\[0\]\.B\.BIT\[6\]\.genblk1\.STORAGE
*179 WORD\[0\]\.W\.BYTE\[0\]\.B\.BIT\[7\]\.OBUF0
*180 WORD\[0\]\.W\.BYTE\[0\]\.B\.BIT\[7\]\.genblk1\.STORAGE
*181 WORD\[0\]\.W\.BYTE\[0\]\.B\.CGAND
*182 WORD\[0\]\.W\.BYTE\[0\]\.B\.DIODE_CLK
*183 WORD\[0\]\.W\.BYTE\[0\]\.B\.SEL0INV
*184 WORD\[0\]\.W\.BYTE\[0\]\.B\.genblk1\.CG
*185 WORD\[0\]\.W\.BYTE\[0\]\.B\.genblk1\.CLKINV
*186 WORD\[0\]\.W\.CLKBUF
*187 WORD\[0\]\.W\.SEL0BUF
*188 WORD\[1\]\.W\.BYTE\[0\]\.B\.BIT\[0\]\.OBUF0
*189 WORD\[1\]\.W\.BYTE\[0\]\.B\.BIT\[0\]\.genblk1\.STORAGE
*190 WORD\[1\]\.W\.BYTE\[0\]\.B\.BIT\[1\]\.OBUF0
*191 WORD\[1\]\.W\.BYTE\[0\]\.B\.BIT\[1\]\.genblk1\.STORAGE
*192 WORD\[1\]\.W\.BYTE\[0\]\.B\.BIT\[2\]\.OBUF0
*193 WORD\[1\]\.W\.BYTE\[0\]\.B\.BIT\[2\]\.genblk1\.STORAGE
*194 WORD\[1\]\.W\.BYTE\[0\]\.B\.BIT\[3\]\.OBUF0
*195 WORD\[1\]\.W\.BYTE\[0\]\.B\.BIT\[3\]\.genblk1\.STORAGE
*196 WORD\[1\]\.W\.BYTE\[0\]\.B\.BIT\[4\]\.OBUF0
*197 WORD\[1\]\.W\.BYTE\[0\]\.B\.BIT\[4\]\.genblk1\.STORAGE
*198 WORD\[1\]\.W\.BYTE\[0\]\.B\.BIT\[5\]\.OBUF0
*199 WORD\[1\]\.W\.BYTE\[0\]\.B\.BIT\[5\]\.genblk1\.STORAGE
*200 WORD\[1\]\.W\.BYTE\[0\]\.B\.BIT\[6\]\.OBUF0
*201 WORD\[1\]\.W\.BYTE\[0\]\.B\.BIT\[6\]\.genblk1\.STORAGE
*202 WORD\[1\]\.W\.BYTE\[0\]\.B\.BIT\[7\]\.OBUF0
*203 WORD\[1\]\.W\.BYTE\[0\]\.B\.BIT\[7\]\.genblk1\.STORAGE
*204 WORD\[1\]\.W\.BYTE\[0\]\.B\.CGAND
*205 WORD\[1\]\.W\.BYTE\[0\]\.B\.DIODE_CLK
*206 WORD\[1\]\.W\.BYTE\[0\]\.B\.SEL0INV
*207 WORD\[1\]\.W\.BYTE\[0\]\.B\.genblk1\.CG
*208 WORD\[1\]\.W\.BYTE\[0\]\.B\.genblk1\.CLKINV
*209 WORD\[1\]\.W\.CLKBUF
*210 WORD\[1\]\.W\.SEL0BUF
*211 WORD\[2\]\.W\.BYTE\[0\]\.B\.BIT\[0\]\.OBUF0
*212 WORD\[2\]\.W\.BYTE\[0\]\.B\.BIT\[0\]\.genblk1\.STORAGE
*213 WORD\[2\]\.W\.BYTE\[0\]\.B\.BIT\[1\]\.OBUF0
*214 WORD\[2\]\.W\.BYTE\[0\]\.B\.BIT\[1\]\.genblk1\.STORAGE
*215 WORD\[2\]\.W\.BYTE\[0\]\.B\.BIT\[2\]\.OBUF0
*216 WORD\[2\]\.W\.BYTE\[0\]\.B\.BIT\[2\]\.genblk1\.STORAGE
*217 WORD\[2\]\.W\.BYTE\[0\]\.B\.BIT\[3\]\.OBUF0
*218 WORD\[2\]\.W\.BYTE\[0\]\.B\.BIT\[3\]\.genblk1\.STORAGE
*219 WORD\[2\]\.W\.BYTE\[0\]\.B\.BIT\[4\]\.OBUF0
*220 WORD\[2\]\.W\.BYTE\[0\]\.B\.BIT\[4\]\.genblk1\.STORAGE
*221 WORD\[2\]\.W\.BYTE\[0\]\.B\.BIT\[5\]\.OBUF0
*222 WORD\[2\]\.W\.BYTE\[0\]\.B\.BIT\[5\]\.genblk1\.STORAGE
*223 WORD\[2\]\.W\.BYTE\[0\]\.B\.BIT\[6\]\.OBUF0
*224 WORD\[2\]\.W\.BYTE\[0\]\.B\.BIT\[6\]\.genblk1\.STORAGE
*225 WORD\[2\]\.W\.BYTE\[0\]\.B\.BIT\[7\]\.OBUF0
*226 WORD\[2\]\.W\.BYTE\[0\]\.B\.BIT\[7\]\.genblk1\.STORAGE
*227 WORD\[2\]\.W\.BYTE\[0\]\.B\.CGAND
*228 WORD\[2\]\.W\.BYTE\[0\]\.B\.DIODE_CLK
*229 WORD\[2\]\.W\.BYTE\[0\]\.B\.SEL0INV
*230 WORD\[2\]\.W\.BYTE\[0\]\.B\.genblk1\.CG
*231 WORD\[2\]\.W\.BYTE\[0\]\.B\.genblk1\.CLKINV
*232 WORD\[2\]\.W\.CLKBUF
*233 WORD\[2\]\.W\.SEL0BUF
*234 WORD\[3\]\.W\.BYTE\[0\]\.B\.BIT\[0\]\.OBUF0
*235 WORD\[3\]\.W\.BYTE\[0\]\.B\.BIT\[0\]\.genblk1\.STORAGE
*236 WORD\[3\]\.W\.BYTE\[0\]\.B\.BIT\[1\]\.OBUF0
*237 WORD\[3\]\.W\.BYTE\[0\]\.B\.BIT\[1\]\.genblk1\.STORAGE
*238 WORD\[3\]\.W\.BYTE\[0\]\.B\.BIT\[2\]\.OBUF0
*239 WORD\[3\]\.W\.BYTE\[0\]\.B\.BIT\[2\]\.genblk1\.STORAGE
*240 WORD\[3\]\.W\.BYTE\[0\]\.B\.BIT\[3\]\.OBUF0
*241 WORD\[3\]\.W\.BYTE\[0\]\.B\.BIT\[3\]\.genblk1\.STORAGE
*242 WORD\[3\]\.W\.BYTE\[0\]\.B\.BIT\[4\]\.OBUF0
*243 WORD\[3\]\.W\.BYTE\[0\]\.B\.BIT\[4\]\.genblk1\.STORAGE
*244 WORD\[3\]\.W\.BYTE\[0\]\.B\.BIT\[5\]\.OBUF0
*245 WORD\[3\]\.W\.BYTE\[0\]\.B\.BIT\[5\]\.genblk1\.STORAGE
*246 WORD\[3\]\.W\.BYTE\[0\]\.B\.BIT\[6\]\.OBUF0
*247 WORD\[3\]\.W\.BYTE\[0\]\.B\.BIT\[6\]\.genblk1\.STORAGE
*248 WORD\[3\]\.W\.BYTE\[0\]\.B\.BIT\[7\]\.OBUF0
*249 WORD\[3\]\.W\.BYTE\[0\]\.B\.BIT\[7\]\.genblk1\.STORAGE
*250 WORD\[3\]\.W\.BYTE\[0\]\.B\.CGAND
*251 WORD\[3\]\.W\.BYTE\[0\]\.B\.DIODE_CLK
*252 WORD\[3\]\.W\.BYTE\[0\]\.B\.SEL0INV
*253 WORD\[3\]\.W\.BYTE\[0\]\.B\.genblk1\.CG
*254 WORD\[3\]\.W\.BYTE\[0\]\.B\.genblk1\.CLKINV
*255 WORD\[3\]\.W\.CLKBUF
*256 WORD\[3\]\.W\.SEL0BUF
*257 WORD\[4\]\.W\.BYTE\[0\]\.B\.BIT\[0\]\.OBUF0
*258 WORD\[4\]\.W\.BYTE\[0\]\.B\.BIT\[0\]\.genblk1\.STORAGE
*259 WORD\[4\]\.W\.BYTE\[0\]\.B\.BIT\[1\]\.OBUF0
*260 WORD\[4\]\.W\.BYTE\[0\]\.B\.BIT\[1\]\.genblk1\.STORAGE
*261 WORD\[4\]\.W\.BYTE\[0\]\.B\.BIT\[2\]\.OBUF0
*262 WORD\[4\]\.W\.BYTE\[0\]\.B\.BIT\[2\]\.genblk1\.STORAGE
*263 WORD\[4\]\.W\.BYTE\[0\]\.B\.BIT\[3\]\.OBUF0
*264 WORD\[4\]\.W\.BYTE\[0\]\.B\.BIT\[3\]\.genblk1\.STORAGE
*265 WORD\[4\]\.W\.BYTE\[0\]\.B\.BIT\[4\]\.OBUF0
*266 WORD\[4\]\.W\.BYTE\[0\]\.B\.BIT\[4\]\.genblk1\.STORAGE
*267 WORD\[4\]\.W\.BYTE\[0\]\.B\.BIT\[5\]\.OBUF0
*268 WORD\[4\]\.W\.BYTE\[0\]\.B\.BIT\[5\]\.genblk1\.STORAGE
*269 WORD\[4\]\.W\.BYTE\[0\]\.B\.BIT\[6\]\.OBUF0
*270 WORD\[4\]\.W\.BYTE\[0\]\.B\.BIT\[6\]\.genblk1\.STORAGE
*271 WORD\[4\]\.W\.BYTE\[0\]\.B\.BIT\[7\]\.OBUF0
*272 WORD\[4\]\.W\.BYTE\[0\]\.B\.BIT\[7\]\.genblk1\.STORAGE
*273 WORD\[4\]\.W\.BYTE\[0\]\.B\.CGAND
*274 WORD\[4\]\.W\.BYTE\[0\]\.B\.DIODE_CLK
*275 WORD\[4\]\.W\.BYTE\[0\]\.B\.SEL0INV
*276 WORD\[4\]\.W\.BYTE\[0\]\.B\.genblk1\.CG
*277 WORD\[4\]\.W\.BYTE\[0\]\.B\.genblk1\.CLKINV
*278 WORD\[4\]\.W\.CLKBUF
*279 WORD\[4\]\.W\.SEL0BUF
*280 WORD\[5\]\.W\.BYTE\[0\]\.B\.BIT\[0\]\.OBUF0
*281 WORD\[5\]\.W\.BYTE\[0\]\.B\.BIT\[0\]\.genblk1\.STORAGE
*282 WORD\[5\]\.W\.BYTE\[0\]\.B\.BIT\[1\]\.OBUF0
*283 WORD\[5\]\.W\.BYTE\[0\]\.B\.BIT\[1\]\.genblk1\.STORAGE
*284 WORD\[5\]\.W\.BYTE\[0\]\.B\.BIT\[2\]\.OBUF0
*285 WORD\[5\]\.W\.BYTE\[0\]\.B\.BIT\[2\]\.genblk1\.STORAGE
*286 WORD\[5\]\.W\.BYTE\[0\]\.B\.BIT\[3\]\.OBUF0
*287 WORD\[5\]\.W\.BYTE\[0\]\.B\.BIT\[3\]\.genblk1\.STORAGE
*288 WORD\[5\]\.W\.BYTE\[0\]\.B\.BIT\[4\]\.OBUF0
*289 WORD\[5\]\.W\.BYTE\[0\]\.B\.BIT\[4\]\.genblk1\.STORAGE
*290 WORD\[5\]\.W\.BYTE\[0\]\.B\.BIT\[5\]\.OBUF0
*291 WORD\[5\]\.W\.BYTE\[0\]\.B\.BIT\[5\]\.genblk1\.STORAGE
*292 WORD\[5\]\.W\.BYTE\[0\]\.B\.BIT\[6\]\.OBUF0
*293 WORD\[5\]\.W\.BYTE\[0\]\.B\.BIT\[6\]\.genblk1\.STORAGE
*294 WORD\[5\]\.W\.BYTE\[0\]\.B\.BIT\[7\]\.OBUF0
*295 WORD\[5\]\.W\.BYTE\[0\]\.B\.BIT\[7\]\.genblk1\.STORAGE
*296 WORD\[5\]\.W\.BYTE\[0\]\.B\.CGAND
*297 WORD\[5\]\.W\.BYTE\[0\]\.B\.DIODE_CLK
*298 WORD\[5\]\.W\.BYTE\[0\]\.B\.SEL0INV
*299 WORD\[5\]\.W\.BYTE\[0\]\.B\.genblk1\.CG
*300 WORD\[5\]\.W\.BYTE\[0\]\.B\.genblk1\.CLKINV
*301 WORD\[5\]\.W\.CLKBUF
*302 WORD\[5\]\.W\.SEL0BUF
*303 WORD\[6\]\.W\.BYTE\[0\]\.B\.BIT\[0\]\.OBUF0
*304 WORD\[6\]\.W\.BYTE\[0\]\.B\.BIT\[0\]\.genblk1\.STORAGE
*305 WORD\[6\]\.W\.BYTE\[0\]\.B\.BIT\[1\]\.OBUF0
*306 WORD\[6\]\.W\.BYTE\[0\]\.B\.BIT\[1\]\.genblk1\.STORAGE
*307 WORD\[6\]\.W\.BYTE\[0\]\.B\.BIT\[2\]\.OBUF0
*308 WORD\[6\]\.W\.BYTE\[0\]\.B\.BIT\[2\]\.genblk1\.STORAGE
*309 WORD\[6\]\.W\.BYTE\[0\]\.B\.BIT\[3\]\.OBUF0
*310 WORD\[6\]\.W\.BYTE\[0\]\.B\.BIT\[3\]\.genblk1\.STORAGE
*311 WORD\[6\]\.W\.BYTE\[0\]\.B\.BIT\[4\]\.OBUF0
*312 WORD\[6\]\.W\.BYTE\[0\]\.B\.BIT\[4\]\.genblk1\.STORAGE
*313 WORD\[6\]\.W\.BYTE\[0\]\.B\.BIT\[5\]\.OBUF0
*314 WORD\[6\]\.W\.BYTE\[0\]\.B\.BIT\[5\]\.genblk1\.STORAGE
*315 WORD\[6\]\.W\.BYTE\[0\]\.B\.BIT\[6\]\.OBUF0
*316 WORD\[6\]\.W\.BYTE\[0\]\.B\.BIT\[6\]\.genblk1\.STORAGE
*317 WORD\[6\]\.W\.BYTE\[0\]\.B\.BIT\[7\]\.OBUF0
*318 WORD\[6\]\.W\.BYTE\[0\]\.B\.BIT\[7\]\.genblk1\.STORAGE
*319 WORD\[6\]\.W\.BYTE\[0\]\.B\.CGAND
*320 WORD\[6\]\.W\.BYTE\[0\]\.B\.DIODE_CLK
*321 WORD\[6\]\.W\.BYTE\[0\]\.B\.SEL0INV
*322 WORD\[6\]\.W\.BYTE\[0\]\.B\.genblk1\.CG
*323 WORD\[6\]\.W\.BYTE\[0\]\.B\.genblk1\.CLKINV
*324 WORD\[6\]\.W\.CLKBUF
*325 WORD\[6\]\.W\.SEL0BUF
*326 WORD\[7\]\.W\.BYTE\[0\]\.B\.BIT\[0\]\.OBUF0
*327 WORD\[7\]\.W\.BYTE\[0\]\.B\.BIT\[0\]\.genblk1\.STORAGE
*328 WORD\[7\]\.W\.BYTE\[0\]\.B\.BIT\[1\]\.OBUF0
*329 WORD\[7\]\.W\.BYTE\[0\]\.B\.BIT\[1\]\.genblk1\.STORAGE
*330 WORD\[7\]\.W\.BYTE\[0\]\.B\.BIT\[2\]\.OBUF0
*331 WORD\[7\]\.W\.BYTE\[0\]\.B\.BIT\[2\]\.genblk1\.STORAGE
*332 WORD\[7\]\.W\.BYTE\[0\]\.B\.BIT\[3\]\.OBUF0
*333 WORD\[7\]\.W\.BYTE\[0\]\.B\.BIT\[3\]\.genblk1\.STORAGE
*334 WORD\[7\]\.W\.BYTE\[0\]\.B\.BIT\[4\]\.OBUF0
*335 WORD\[7\]\.W\.BYTE\[0\]\.B\.BIT\[4\]\.genblk1\.STORAGE
*336 WORD\[7\]\.W\.BYTE\[0\]\.B\.BIT\[5\]\.OBUF0
*337 WORD\[7\]\.W\.BYTE\[0\]\.B\.BIT\[5\]\.genblk1\.STORAGE
*338 WORD\[7\]\.W\.BYTE\[0\]\.B\.BIT\[6\]\.OBUF0
*339 WORD\[7\]\.W\.BYTE\[0\]\.B\.BIT\[6\]\.genblk1\.STORAGE
*340 WORD\[7\]\.W\.BYTE\[0\]\.B\.BIT\[7\]\.OBUF0
*341 WORD\[7\]\.W\.BYTE\[0\]\.B\.BIT\[7\]\.genblk1\.STORAGE
*342 WORD\[7\]\.W\.BYTE\[0\]\.B\.CGAND
*343 WORD\[7\]\.W\.BYTE\[0\]\.B\.DIODE_CLK
*344 WORD\[7\]\.W\.BYTE\[0\]\.B\.SEL0INV
*345 WORD\[7\]\.W\.BYTE\[0\]\.B\.genblk1\.CG
*346 WORD\[7\]\.W\.BYTE\[0\]\.B\.genblk1\.CLKINV
*347 WORD\[7\]\.W\.CLKBUF
*348 WORD\[7\]\.W\.SEL0BUF
*349 fill_0_0
*350 fill_1_0
*351 fill_1_1
*352 fill_2_0
*353 fill_2_1
*354 fill_2_2
*355 fill_2_3
*356 fill_2_4
*357 fill_3_0
*358 fill_3_1
*359 fill_3_2
*360 fill_3_3
*361 fill_4_0
*362 fill_4_1
*363 fill_4_2
*364 fill_4_3
*365 fill_4_4
*366 fill_4_5
*367 fill_5_0
*368 fill_5_1
*369 fill_5_2
*370 fill_5_3
*371 fill_6_0
*372 fill_6_1
*373 fill_6_2
*374 fill_6_3
*375 fill_6_4
*376 fill_7_0
*377 fill_7_1
*378 fill_7_2
*379 fill_7_3
*380 fill_7_4
*381 tap_0_0
*382 tap_0_1
*383 tap_0_2
*384 tap_0_3
*385 tap_0_4
*386 tap_0_5
*387 tap_0_6
*388 tap_0_7
*389 tap_0_8
*390 tap_1_0
*391 tap_1_1
*392 tap_1_2
*393 tap_1_3
*394 tap_1_4
*395 tap_1_5
*396 tap_1_6
*397 tap_1_7
*398 tap_1_8
*399 tap_1_9
*400 tap_2_0
*401 tap_2_1
*402 tap_2_2
*403 tap_2_3
*404 tap_2_4
*405 tap_2_5
*406 tap_2_6
*407 tap_2_7
*408 tap_2_8
*409 tap_3_0
*410 tap_3_1
*411 tap_3_2
*412 tap_3_3
*413 tap_3_4
*414 tap_3_5
*415 tap_3_6
*416 tap_3_7
*417 tap_3_8
*418 tap_3_9
*419 tap_4_0
*420 tap_4_1
*421 tap_4_2
*422 tap_4_3
*423 tap_4_4
*424 tap_4_5
*425 tap_4_6
*426 tap_4_7
*427 tap_4_8
*428 tap_5_0
*429 tap_5_1
*430 tap_5_2
*431 tap_5_3
*432 tap_5_4
*433 tap_5_5
*434 tap_5_6
*435 tap_5_7
*436 tap_5_8
*437 tap_5_9
*438 tap_6_0
*439 tap_6_1
*440 tap_6_2
*441 tap_6_3
*442 tap_6_4
*443 tap_6_5
*444 tap_6_6
*445 tap_6_7
*446 tap_6_8
*447 tap_7_0
*448 tap_7_1
*449 tap_7_2
*450 tap_7_3
*451 tap_7_4
*452 tap_7_5
*453 tap_7_6
*454 tap_7_7
*455 tap_7_8
*456 tap_7_9

*PORTS
A0[0] I
A0[1] I
A0[2] I
CLK I
Di0[0] I
Di0[1] I
Di0[2] I
Di0[3] I
Di0[4] I
Di0[5] I
Di0[6] I
Di0[7] I
Do0[0] O
Do0[1] O
Do0[2] O
Do0[3] O
Do0[4] O
Do0[5] O
Do0[6] O
Do0[7] O
EN0 I
WE0 I

*D_NET *1 0.000829314
*CONN
*P A0[0] I
*I *152:A I *D sky130_fd_sc_hd__clkbuf_2
*CAP
1 A0[0] 0.000266702
2 *152:A 0
3 *1:13 0.000266702
4 *1:13 *2:15 0
5 *1:13 *21:13 0.000263622
6 *1:13 *26:6 3.22879e-05
7 *1:13 *26:19 0
8 *1:13 *26:28 0
*RES
1 A0[0] *1:13 27.8309 
2 *1:13 *152:A 23 
*END

*D_NET *2 0.00121523
*CONN
*P A0[1] I
*I *153:A I *D sky130_fd_sc_hd__clkbuf_2
*CAP
1 A0[1] 0.00035734
2 *153:A 0
3 *2:15 0.00035734
4 *2:15 *157:B_N 0
5 *2:15 *3:13 0.000155786
6 *2:15 *21:13 0.00028806
7 *2:15 *26:30 0
8 *2:15 *27:8 5.67058e-05
9 *1:13 *2:15 0
*RES
1 A0[1] *2:15 29.633 
2 *2:15 *153:A 23 
*END

*D_NET *3 0.00125609
*CONN
*P A0[2] I
*I *154:A I *D sky130_fd_sc_hd__clkbuf_2
*CAP
1 A0[2] 0.000497048
2 *154:A 0
3 *3:13 0.000497048
4 *3:13 *4:11 0
5 *3:13 *21:13 4.9171e-05
6 *3:13 *26:30 0
7 *3:13 *26:45 0
8 *3:13 *28:6 5.70419e-05
9 *2:15 *3:13 0.000155786
*RES
1 A0[2] *3:13 31.2103 
2 *3:13 *154:A 23 
*END

*D_NET *4 0.00298763
*CONN
*P CLK I
*I *151:A I *D sky130_fd_sc_hd__clkbuf_2
*CAP
1 CLK 0.00132934
2 *151:A 0
3 *4:11 0.00132934
4 *4:11 Do0[7] 0
5 *4:11 *186:A 0
6 *4:11 *12:21 0.000243257
7 *4:11 *24:17 0
8 *4:11 *25:28 0
9 *4:11 *25:39 0
10 *4:11 *25:48 0
11 *4:11 *25:59 0
12 *4:11 *25:68 0
13 *4:11 *27:67 6.0093e-05
14 *4:11 *27:80 2.55912e-05
15 *3:13 *4:11 0
*RES
1 CLK *4:11 37.4343 
2 *4:11 *151:A 23 
*END

*D_NET *5 0.00569705
*CONN
*P Di0[0] I
*I *327:D I *D sky130_fd_sc_hd__dlxtp_1
*I *304:D I *D sky130_fd_sc_hd__dlxtp_1
*I *281:D I *D sky130_fd_sc_hd__dlxtp_1
*I *258:D I *D sky130_fd_sc_hd__dlxtp_1
*I *235:D I *D sky130_fd_sc_hd__dlxtp_1
*I *212:D I *D sky130_fd_sc_hd__dlxtp_1
*I *189:D I *D sky130_fd_sc_hd__dlxtp_1
*I *166:D I *D sky130_fd_sc_hd__dlxtp_1
*CAP
1 Di0[0] 0.000265271
2 *327:D 0.000283435
3 *304:D 8.66603e-05
4 *281:D 8.91322e-05
5 *258:D 8.66603e-05
6 *235:D 8.91322e-05
7 *212:D 8.66603e-05
8 *189:D 8.91322e-05
9 *166:D 8.66603e-05
10 *5:79 0.000535434
11 *5:68 0.000448774
12 *5:57 0.000446302
13 *5:46 0.000448774
14 *5:35 0.000446302
15 *5:24 0.000452951
16 *5:13 0.000550412
17 *166:D *166:GATE 0.000228903
18 *189:D *189:GATE 7.24365e-05
19 *212:D *212:GATE 0.000228903
20 *235:D *235:GATE 7.24365e-05
21 *258:D *258:GATE 0.000228903
22 *281:D *281:GATE 7.24365e-05
23 *304:D *304:GATE 0.000228903
24 *327:D Do0[0] 0
25 *327:D *327:GATE 7.24365e-05
26 *327:D *13:16 0
27 *5:24 *165:Z 0
28 *5:24 *13:32 0
29 *5:35 *13:32 0
*RES
1 Di0[0] *5:13 5.90357 
2 *5:13 *166:D 40.5271 
3 *5:13 *5:24 3.31429 
4 *5:24 *189:D 40.0507 
5 *5:24 *5:35 2.61 
6 *5:35 *212:D 40.5271 
7 *5:35 *5:46 3.31429 
8 *5:46 *235:D 40.0507 
9 *5:46 *5:57 2.61 
10 *5:57 *258:D 40.5271 
11 *5:57 *5:68 3.31429 
12 *5:68 *281:D 40.0507 
13 *5:68 *5:79 2.61 
14 *5:79 *304:D 40.5271 
15 *5:79 *327:D 43.365 
*END

*D_NET *6 0.00522026
*CONN
*P Di0[1] I
*I *329:D I *D sky130_fd_sc_hd__dlxtp_1
*I *306:D I *D sky130_fd_sc_hd__dlxtp_1
*I *283:D I *D sky130_fd_sc_hd__dlxtp_1
*I *260:D I *D sky130_fd_sc_hd__dlxtp_1
*I *237:D I *D sky130_fd_sc_hd__dlxtp_1
*I *214:D I *D sky130_fd_sc_hd__dlxtp_1
*I *191:D I *D sky130_fd_sc_hd__dlxtp_1
*I *168:D I *D sky130_fd_sc_hd__dlxtp_1
*CAP
1 Di0[1] 0.000653811
2 *329:D 0.000260225
3 *306:D 5.48797e-05
4 *283:D 1.97948e-05
5 *260:D 5.48797e-05
6 *237:D 0
7 *214:D 4.63196e-05
8 *191:D 0
9 *168:D 1.7297e-05
10 *6:97 0.000463753
11 *6:86 0.000403019
12 *6:73 0.000501088
13 *6:60 0.000458272
14 *6:47 0.000438039
15 *6:38 0.000349841
16 *6:27 0.000275749
17 *6:21 0.000707502
18 *168:D *165:TE_B 3.22879e-05
19 *168:D *41:20 1.94693e-05
20 *214:D *211:TE_B 2.93747e-05
21 *214:D *69:20 1.94693e-05
22 *260:D *257:TE_B 5.41288e-05
23 *260:D *97:20 3.71251e-05
24 *283:D *280:TE_B 5.50049e-05
25 *283:D *111:26 1.94693e-05
26 *306:D *303:TE_B 5.41288e-05
27 *306:D *125:20 3.71251e-05
28 *329:D *326:TE_B 5.50049e-05
29 *329:D *13:20 0
30 *329:D *139:26 1.94693e-05
31 *6:21 *7:17 0
32 *6:27 *165:TE_B 4.6595e-05
33 *6:27 *167:A 0
34 *6:27 *41:20 3.71369e-05
35 *6:38 *165:Z 0
36 *6:38 *13:32 0
37 *6:38 *57:8 0
38 *6:47 *13:32 0
39 *6:47 *57:8 0
40 *6:60 *13:24 0
41 *6:60 *13:26 0
42 *6:60 *13:32 0
43 *6:73 *13:24 0
44 *6:86 *13:20 0
45 *6:86 *13:22 0
46 *6:86 *13:24 0
47 *6:97 *13:20 0
*RES
1 Di0[1] *6:21 40.9579 
2 *6:21 *6:27 16.595 
3 *6:27 *168:D 23.6214 
4 *6:27 *6:38 18.3143 
5 *6:38 *191:D 38 
6 *6:38 *6:47 2.25786 
7 *6:47 *214:D 39.1186 
8 *6:47 *6:60 3.66643 
9 *6:60 *237:D 38 
10 *6:60 *6:73 3.02429 
11 *6:73 *260:D 39.595 
12 *6:73 *6:86 3.66643 
13 *6:86 *283:D 38.6214 
14 *6:86 *6:97 2.25786 
15 *6:97 *306:D 39.595 
16 *6:97 *329:D 42.2879 
*END

*D_NET *7 0.00541144
*CONN
*P Di0[2] I
*I *331:D I *D sky130_fd_sc_hd__dlxtp_1
*I *308:D I *D sky130_fd_sc_hd__dlxtp_1
*I *285:D I *D sky130_fd_sc_hd__dlxtp_1
*I *262:D I *D sky130_fd_sc_hd__dlxtp_1
*I *239:D I *D sky130_fd_sc_hd__dlxtp_1
*I *216:D I *D sky130_fd_sc_hd__dlxtp_1
*I *193:D I *D sky130_fd_sc_hd__dlxtp_1
*I *170:D I *D sky130_fd_sc_hd__dlxtp_1
*CAP
1 Di0[2] 0.000890084
2 *331:D 0.00025379
3 *308:D 4.63196e-05
4 *285:D 0
5 *262:D 4.63196e-05
6 *239:D 0
7 *216:D 4.4446e-05
8 *193:D 0
9 *170:D 1.7297e-05
10 *7:87 0.00044519
11 *7:78 0.000398871
12 *7:65 0.00044519
13 *7:56 0.000383733
14 *7:43 0.000428057
15 *7:34 0.000355432
16 *7:23 0.000292564
17 *7:17 0.000954877
18 *170:D *41:16 1.94693e-05
19 *170:D *51:34 3.22879e-05
20 *216:D *69:16 1.39317e-05
21 *216:D *79:34 5.50049e-05
22 *262:D *97:16 1.94693e-05
23 *262:D *107:44 2.93747e-05
24 *308:D *125:16 1.94693e-05
25 *308:D *135:32 2.93747e-05
26 *331:D Do0[1] 0
27 *331:D *14:8 0
28 *331:D *14:10 0
29 *7:17 *8:17 8.61037e-06
30 *7:23 *169:A 1.37232e-05
31 *7:23 *41:16 7.24484e-05
32 *7:23 *51:34 9.6103e-05
33 *7:34 *167:Z 0
34 *7:34 *14:18 0
35 *7:34 *58:8 0
36 *7:43 *14:18 0
37 *7:43 *58:8 0
38 *7:56 *14:14 0
39 *7:56 *14:16 0
40 *7:56 *14:18 0
41 *7:65 *14:14 0
42 *7:78 *14:10 0
43 *7:78 *14:12 0
44 *7:78 *14:14 0
45 *7:87 *14:10 0
46 *6:21 *7:17 0
*RES
1 Di0[2] *7:17 42.47 
2 *7:17 *7:23 17.5479 
3 *7:23 *170:D 23.6214 
4 *7:23 *7:34 18.3143 
5 *7:34 *193:D 38 
6 *7:34 *7:43 2.25786 
7 *7:43 *216:D 39.1186 
8 *7:43 *7:56 3.66643 
9 *7:56 *239:D 38 
10 *7:56 *7:65 2.25786 
11 *7:65 *262:D 39.1186 
12 *7:65 *7:78 3.66643 
13 *7:78 *285:D 38 
14 *7:78 *7:87 2.25786 
15 *7:87 *308:D 39.1186 
16 *7:87 *331:D 41.6664 
*END

*D_NET *8 0.0072351
*CONN
*P Di0[3] I
*I *333:D I *D sky130_fd_sc_hd__dlxtp_1
*I *310:D I *D sky130_fd_sc_hd__dlxtp_1
*I *287:D I *D sky130_fd_sc_hd__dlxtp_1
*I *264:D I *D sky130_fd_sc_hd__dlxtp_1
*I *241:D I *D sky130_fd_sc_hd__dlxtp_1
*I *218:D I *D sky130_fd_sc_hd__dlxtp_1
*I *195:D I *D sky130_fd_sc_hd__dlxtp_1
*I *172:D I *D sky130_fd_sc_hd__dlxtp_1
*CAP
1 Di0[3] 0.00112981
2 *333:D 0.000276529
3 *310:D 7.2e-05
4 *287:D 3.44106e-05
5 *264:D 7.2e-05
6 *241:D 0
7 *218:D 4.63196e-05
8 *195:D 0
9 *172:D 1.7297e-05
10 *8:93 0.000497178
11 *8:82 0.000424786
12 *8:69 0.000670293
13 *8:56 0.000591549
14 *8:43 0.000429588
15 *8:34 0.000344534
16 *8:23 0.000292916
17 *8:17 0.00120918
18 *172:D *41:14 1.94693e-05
19 *172:D *51:32 3.22879e-05
20 *218:D *69:14 1.94693e-05
21 *218:D *79:32 2.93747e-05
22 *264:D *263:TE_B 0
23 *264:D *97:14 7.24365e-05
24 *264:D *107:42 0.000103637
25 *287:D *111:22 5.47808e-05
26 *287:D *121:34 0.000141954
27 *310:D *309:TE_B 0
28 *310:D *125:14 7.24365e-05
29 *310:D *135:30 0.000103637
30 *333:D *15:12 0
31 *333:D *15:14 0
32 *333:D *139:22 5.47808e-05
33 *333:D *149:34 0.000141954
34 *8:17 *9:15 5.47927e-05
35 *8:17 *9:23 6.12496e-06
36 *8:23 *171:TE_B 0
37 *8:23 *41:14 9.01041e-05
38 *8:23 *51:32 0.000120857
39 *8:34 *169:Z 0
40 *8:34 *59:8 0
41 *8:43 *169:Z 0
42 *8:43 *15:22 0
43 *8:43 *59:8 0
44 *8:56 *15:20 0
45 *8:56 *15:22 0
46 *8:69 *15:18 0
47 *8:69 *15:20 0
48 *8:82 *15:14 0
49 *8:82 *15:16 0
50 *8:82 *15:18 0
51 *8:93 *15:14 0
52 *7:17 *8:17 8.61037e-06
*RES
1 Di0[3] *8:17 45.805 
2 *8:17 *8:23 18.0243 
3 *8:23 *172:D 23.6214 
4 *8:23 *8:34 18.3143 
5 *8:34 *195:D 38 
6 *8:34 *8:43 2.25786 
7 *8:43 *218:D 39.1186 
8 *8:43 *8:56 3.66643 
9 *8:56 *241:D 38 
10 *8:56 *8:69 3.97714 
11 *8:69 *264:D 40.5479 
12 *8:69 *8:82 3.66643 
13 *8:82 *287:D 39.5743 
14 *8:82 *8:93 2.25786 
15 *8:93 *310:D 40.5479 
16 *8:93 *333:D 43.2407 
*END

*D_NET *9 0.00586311
*CONN
*P Di0[4] I
*I *335:D I *D sky130_fd_sc_hd__dlxtp_1
*I *312:D I *D sky130_fd_sc_hd__dlxtp_1
*I *289:D I *D sky130_fd_sc_hd__dlxtp_1
*I *266:D I *D sky130_fd_sc_hd__dlxtp_1
*I *243:D I *D sky130_fd_sc_hd__dlxtp_1
*I *220:D I *D sky130_fd_sc_hd__dlxtp_1
*I *197:D I *D sky130_fd_sc_hd__dlxtp_1
*I *174:D I *D sky130_fd_sc_hd__dlxtp_1
*CAP
1 Di0[4] 0.000757112
2 *335:D 0.000234983
3 *312:D 4.63196e-05
4 *289:D 0
5 *266:D 4.63196e-05
6 *243:D 0
7 *220:D 4.63196e-05
8 *197:D 0
9 *174:D 1.7297e-05
10 *9:87 0.000429588
11 *9:78 0.000383268
12 *9:65 0.000429588
13 *9:56 0.000383268
14 *9:43 0.000429588
15 *9:34 0.000344534
16 *9:23 0.000469582
17 *9:15 0.00101315
18 *174:D *41:12 1.94693e-05
19 *174:D *51:30 3.22879e-05
20 *220:D *69:12 1.94693e-05
21 *220:D *79:30 2.93747e-05
22 *266:D *97:12 1.94693e-05
23 *266:D *107:40 2.93747e-05
24 *312:D *125:12 1.94693e-05
25 *312:D *135:28 2.93747e-05
26 *335:D *16:8 0
27 *335:D *16:10 0
28 *9:15 *10:17 0.000319617
29 *9:15 *11:25 0
30 *9:23 *41:12 0.00010776
31 *9:23 *51:30 0.000145611
32 *9:34 *171:Z 0
33 *9:34 *60:8 0
34 *9:43 *171:Z 0
35 *9:43 *16:18 0
36 *9:43 *60:8 0
37 *9:56 *16:16 0
38 *9:56 *16:18 0
39 *9:65 *16:14 0
40 *9:65 *16:16 0
41 *9:78 *16:12 0
42 *9:78 *16:14 0
43 *9:87 *16:10 0
44 *9:87 *16:12 0
45 *8:17 *9:15 5.47927e-05
46 *8:17 *9:23 6.12496e-06
*RES
1 Di0[4] *9:15 48.6429 
2 *9:15 *9:23 21.1107 
3 *9:23 *174:D 23.6214 
4 *9:23 *9:34 18.3143 
5 *9:34 *197:D 38 
6 *9:34 *9:43 2.25786 
7 *9:43 *220:D 39.1186 
8 *9:43 *9:56 3.66643 
9 *9:56 *243:D 38 
10 *9:56 *9:65 2.25786 
11 *9:65 *266:D 39.1186 
12 *9:65 *9:78 3.66643 
13 *9:78 *289:D 38 
14 *9:78 *9:87 2.25786 
15 *9:87 *312:D 39.1186 
16 *9:87 *335:D 41.6664 
*END

*D_NET *10 0.00719484
*CONN
*P Di0[5] I
*I *337:D I *D sky130_fd_sc_hd__dlxtp_1
*I *314:D I *D sky130_fd_sc_hd__dlxtp_1
*I *291:D I *D sky130_fd_sc_hd__dlxtp_1
*I *268:D I *D sky130_fd_sc_hd__dlxtp_1
*I *245:D I *D sky130_fd_sc_hd__dlxtp_1
*I *222:D I *D sky130_fd_sc_hd__dlxtp_1
*I *199:D I *D sky130_fd_sc_hd__dlxtp_1
*I *176:D I *D sky130_fd_sc_hd__dlxtp_1
*CAP
1 Di0[5] 0.00163217
2 *337:D 0.000234983
3 *314:D 4.63196e-05
4 *291:D 0
5 *268:D 1.46798e-05
6 *245:D 2.27984e-05
7 *222:D 0
8 *199:D 2.27984e-05
9 *176:D 0
10 *10:85 0.000429588
11 *10:76 0.000379815
12 *10:61 0.000393937
13 *10:50 0.000381993
14 *10:41 0.000369757
15 *10:30 0.000393554
16 *10:21 0.000333349
17 *10:17 0.00175305
18 *199:D *55:24 1.94812e-05
19 *199:D *65:38 2.93845e-05
20 *245:D *83:18 1.94812e-05
21 *245:D *93:24 2.93845e-05
22 *268:D *17:14 0
23 *268:D *97:10 4.10993e-06
24 *268:D *107:36 1.37702e-05
25 *314:D *125:10 1.94693e-05
26 *314:D *135:26 2.93747e-05
27 *337:D *17:8 0
28 *337:D *17:10 0
29 *10:17 *11:17 0.000301973
30 *10:30 *173:Z 0
31 *10:30 *61:8 0
32 *10:41 *173:Z 0
33 *10:41 *17:18 0
34 *10:41 *61:8 0
35 *10:50 *17:16 0
36 *10:50 *17:18 0
37 *10:61 *17:14 0
38 *10:61 *17:16 0
39 *10:76 *17:12 0
40 *10:76 *17:14 0
41 *10:85 *17:10 0
42 *10:85 *17:12 0
43 *9:15 *10:17 0.000319617
*RES
1 Di0[5] *10:17 41.0793 
2 *10:17 *10:21 16.9057 
3 *10:21 *176:D 38 
4 *10:21 *10:30 3.31429 
5 *10:30 *199:D 38.6214 
6 *10:30 *10:41 2.61 
7 *10:41 *222:D 38 
8 *10:41 *10:50 3.31429 
9 *10:50 *245:D 38.6214 
10 *10:50 *10:61 2.43393 
11 *10:61 *268:D 38.4816 
12 *10:61 *10:76 4.11179 
13 *10:76 *291:D 38 
14 *10:76 *10:85 2.25786 
15 *10:85 *314:D 39.1186 
16 *10:85 *337:D 41.6664 
*END

*D_NET *11 0.00675576
*CONN
*P Di0[6] I
*I *339:D I *D sky130_fd_sc_hd__dlxtp_1
*I *316:D I *D sky130_fd_sc_hd__dlxtp_1
*I *293:D I *D sky130_fd_sc_hd__dlxtp_1
*I *270:D I *D sky130_fd_sc_hd__dlxtp_1
*I *247:D I *D sky130_fd_sc_hd__dlxtp_1
*I *224:D I *D sky130_fd_sc_hd__dlxtp_1
*I *201:D I *D sky130_fd_sc_hd__dlxtp_1
*I *178:D I *D sky130_fd_sc_hd__dlxtp_1
*CAP
1 Di0[6] 0.00114827
2 *339:D 0.00021269
3 *316:D 1.97948e-05
4 *293:D 0
5 *270:D 4.63196e-05
6 *247:D 0
7 *224:D 4.63196e-05
8 *201:D 0
9 *178:D 4.0315e-05
10 *11:91 0.000414529
11 *11:82 0.00042779
12 *11:69 0.000440336
13 *11:60 0.000383254
14 *11:47 0.000429588
15 *11:38 0.000375293
16 *11:25 0.000500389
17 *11:17 0.00138134
18 *178:D *41:8 1.39317e-05
19 *178:D *51:24 5.67058e-05
20 *224:D *69:8 1.94693e-05
21 *224:D *79:26 2.93747e-05
22 *270:D *97:8 1.94693e-05
23 *270:D *107:34 2.93747e-05
24 *316:D *125:8 1.94693e-05
25 *316:D *135:24 5.50049e-05
26 *339:D *18:14 0
27 *339:D *18:16 0
28 *11:17 *38:16 8.61037e-06
29 *11:25 *41:8 7.70046e-05
30 *11:25 *51:24 0.000259146
31 *11:38 *175:Z 0
32 *11:38 *62:8 0
33 *11:47 *175:Z 0
34 *11:47 *18:24 0
35 *11:47 *62:8 0
36 *11:47 *65:36 0
37 *11:60 *18:22 0
38 *11:60 *18:24 0
39 *11:69 *18:20 0
40 *11:69 *18:22 0
41 *11:82 *18:16 0
42 *11:82 *18:18 0
43 *11:82 *18:20 0
44 *11:91 *18:16 0
45 *9:15 *11:25 0
46 *10:17 *11:17 0.000301973
*RES
1 Di0[6] *11:17 41.5557 
2 *11:17 *11:25 35.6136 
3 *11:25 *178:D 24.1186 
4 *11:25 *11:38 18.6664 
5 *11:38 *201:D 38 
6 *11:38 *11:47 2.25786 
7 *11:47 *224:D 39.1186 
8 *11:47 *11:60 3.66643 
9 *11:60 *247:D 38 
10 *11:60 *11:69 2.25786 
11 *11:69 *270:D 39.1186 
12 *11:69 *11:82 3.66643 
13 *11:82 *293:D 38 