*SPEF "ieee 1481-1999"
*DESIGN "RAM8"
*DATE "11:11:11 Fri 11 11, 1111"
*VENDOR "OpenRCX"
*PROGRAM "Parallel Extraction"
*VERSION "1.0"
*DESIGN_FLOW "NAME_SCOPE LOCAL" "PIN_CAP NONE"
*DIVIDER /
*DELIMITER :
*BUS_DELIMITER []
*T_UNIT 1 NS
*C_UNIT 1 PF
*R_UNIT 1 OHM
*L_UNIT 1 HENRY

*NAME_MAP
*1 A0[0]
*2 A0[1]
*3 A0[2]
*4 CLK
*5 Di0[0]
*6 Di0[1]
*7 Di0[2]
*8 Di0[3]
*9 Di0[4]
*10 Di0[5]
*11 Di0[6]
*12 Di0[7]
*13 WORD\[0\]\.W\.BYTE\[0\]\.B\.Do0\[0\]
*14 WORD\[0\]\.W\.BYTE\[0\]\.B\.Do0\[1\]
*15 WORD\[0\]\.W\.BYTE\[0\]\.B\.Do0\[2\]
*16 WORD\[0\]\.W\.BYTE\[0\]\.B\.Do0\[3\]
*17 WORD\[0\]\.W\.BYTE\[0\]\.B\.Do0\[4\]
*18 WORD\[0\]\.W\.BYTE\[0\]\.B\.Do0\[5\]
*19 WORD\[0\]\.W\.BYTE\[0\]\.B\.Do0\[6\]
*20 WORD\[0\]\.W\.BYTE\[0\]\.B\.Do0\[7\]
*21 EN0
*24 WE0
*25 CLKBUF\.X
*26 DEC0\.A_buf\[0\]
*27 DEC0\.A_buf\[1\]
*28 DEC0\.A_buf\[2\]
*29 DEC0\.EN_buf
*30 DEC0\.SEL\[0\]
*31 DEC0\.SEL\[1\]
*32 DEC0\.SEL\[2\]
*33 DEC0\.SEL\[3\]
*34 DEC0\.SEL\[4\]
*35 DEC0\.SEL\[5\]
*36 DEC0\.SEL\[6\]
*37 DEC0\.SEL\[7\]
*38 WEBUF\[0\]\.X
*39 WORD\[0\]\.W\.BYTE\[0\]\.B\.CLK
*40 WORD\[0\]\.W\.BYTE\[0\]\.B\.CLK_B
*41 WORD\[0\]\.W\.BYTE\[0\]\.B\.GCLK
*42 WORD\[0\]\.W\.BYTE\[0\]\.B\.Q_WIRE\[0\]
*43 WORD\[0\]\.W\.BYTE\[0\]\.B\.Q_WIRE\[1\]
*44 WORD\[0\]\.W\.BYTE\[0\]\.B\.Q_WIRE\[2\]
*45 WORD\[0\]\.W\.BYTE\[0\]\.B\.Q_WIRE\[3\]
*46 WORD\[0\]\.W\.BYTE\[0\]\.B\.Q_WIRE\[4\]
*47 WORD\[0\]\.W\.BYTE\[0\]\.B\.Q_WIRE\[5\]
*48 WORD\[0\]\.W\.BYTE\[0\]\.B\.Q_WIRE\[6\]
*49 WORD\[0\]\.W\.BYTE\[0\]\.B\.Q_WIRE\[7\]
*50 WORD\[0\]\.W\.BYTE\[0\]\.B\.SEL0
*51 WORD\[0\]\.W\.BYTE\[0\]\.B\.SEL0_B
*52 WORD\[0\]\.W\.BYTE\[0\]\.B\.WE0_WIRE
*53 WORD\[1\]\.W\.BYTE\[0\]\.B\.CLK
*54 WORD\[1\]\.W\.BYTE\[0\]\.B\.CLK_B
*55 WORD\[1\]\.W\.BYTE\[0\]\.B\.GCLK
*56 WORD\[1\]\.W\.BYTE\[0\]\.B\.Q_WIRE\[0\]
*57 WORD\[1\]\.W\.BYTE\[0\]\.B\.Q_WIRE\[1\]
*58 WORD\[1\]\.W\.BYTE\[0\]\.B\.Q_WIRE\[2\]
*59 WORD\[1\]\.W\.BYTE\[0\]\.B\.Q_WIRE\[3\]
*60 WORD\[1\]\.W\.BYTE\[0\]\.B\.Q_WIRE\[4\]
*61 WORD\[1\]\.W\.BYTE\[0\]\.B\.Q_WIRE\[5\]
*62 WORD\[1\]\.W\.BYTE\[0\]\.B\.Q_WIRE\[6\]
*63 WORD\[1\]\.W\.BYTE\[0\]\.B\.Q_WIRE\[7\]
*64 WORD\[1\]\.W\.BYTE\[0\]\.B\.SEL0
*65 WORD\[1\]\.W\.BYTE\[0\]\.B\.SEL0_B
*66 WORD\[1\]\.W\.BYTE\[0\]\.B\.WE0_WIRE
*67 WORD\[2\]\.W\.BYTE\[0\]\.B\.CLK
*68 WORD\[2\]\.W\.BYTE\[0\]\.B\.CLK_B
*69 WORD\[2\]\.W\.BYTE\[0\]\.B\.GCLK
*70 WORD\[2\]\.W\.BYTE\[0\]\.B\.Q_WIRE\[0\]
*71 WORD\[2\]\.W\.BYTE\[0\]\.B\.Q_WIRE\[1\]
*72 WORD\[2\]\.W\.BYTE\[0\]\.B\.Q_WIRE\[2\]
*73 WORD\[2\]\.W\.BYTE\[0\]\.B\.Q_WIRE\[3\]
*74 WORD\[2\]\.W\.BYTE\[0\]\.B\.Q_WIRE\[4\]
*75 WORD\[2\]\.W\.BYTE\[0\]\.B\.Q_WIRE\[5\]
*76 WORD\[2\]\.W\.BYTE\[0\]\.B\.Q_WIRE\[6\]
*77 WORD\[2\]\.W\.BYTE\[0\]\.B\.Q_WIRE\[7\]
*78 WORD\[2\]\.W\.BYTE\[0\]\.B\.SEL0
*79 WORD\[2\]\.W\.BYTE\[0\]\.B\.SEL0_B
*80 WORD\[2\]\.W\.BYTE\[0\]\.B\.WE0_WIRE
*81 WORD\[3\]\.W\.BYTE\[0\]\.B\.CLK
*82 WORD\[3\]\.W\.BYTE\[0\]\.B\.CLK_B
*83 WORD\[3\]\.W\.BYTE\[0\]\.B\.GCLK
*84 WORD\[3\]\.W\.BYTE\[0\]\.B\.Q_WIRE\[0\]
*85 WORD\[3\]\.W\.BYTE\[0\]\.B\.Q_WIRE\[1\]
*86 WORD\[3\]\.W\.BYTE\[0\]\.B\.Q_WIRE\[2\]
*87 WORD\[3\]\.W\.BYTE\[0\]\.B\.Q_WIRE\[3\]
*88 WORD\[3\]\.W\.BYTE\[0\]\.B\.Q_WIRE\[4\]
*89 WORD\[3\]\.W\.BYTE\[0\]\.B\.Q_WIRE\[5\]
*90 WORD\[3\]\.W\.BYTE\[0\]\.B\.Q_WIRE\[6\]
*91 WORD\[3\]\.W\.BYTE\[0\]\.B\.Q_WIRE\[7\]
*92 WORD\[3\]\.W\.BYTE\[0\]\.B\.SEL0
*93 WORD\[3\]\.W\.BYTE\[0\]\.B\.SEL0_B
*94 WORD\[3\]\.W\.BYTE\[0\]\.B\.WE0_WIRE
*95 WORD\[4\]\.W\.BYTE\[0\]\.B\.CLK
*96 WORD\[4\]\.W\.BYTE\[0\]\.B\.CLK_B
*97 WORD\[4\]\.W\.BYTE\[0\]\.B\.GCLK
*98 WORD\[4\]\.W\.BYTE\[0\]\.B\.Q_WIRE\[0\]
*99 WORD\[4\]\.W\.BYTE\[0\]\.B\.Q_WIRE\[1\]
*100 WORD\[4\]\.W\.BYTE\[0\]\.B\.Q_WIRE\[2\]
*101 WORD\[4\]\.W\.BYTE\[0\]\.B\.Q_WIRE\[3\]
*102 WORD\[4\]\.W\.BYTE\[0\]\.B\.Q_WIRE\[4\]
*103 WORD\[4\]\.W\.BYTE\[0\]\.B\.Q_WIRE\[5\]
*104 WORD\[4\]\.W\.BYTE\[0\]\.B\.Q_WIRE\[6\]
*105 WORD\[4\]\.W\.BYTE\[0\]\.B\.Q_WIRE\[7\]
*106 WORD\[4\]\.W\.BYTE\[0\]\.B\.SEL0
*107 WORD\[4\]\.W\.BYTE\[0\]\.B\.SEL0_B
*108 WORD\[4\]\.W\.BYTE\[0\]\.B\.WE0_WIRE
*109 WORD\[5\]\.W\.BYTE\[0\]\.B\.CLK
*110 WORD\[5\]\.W\.BYTE\[0\]\.B\.CLK_B
*111 WORD\[5\]\.W\.BYTE\[0\]\.B\.GCLK
*112 WORD\[5\]\.W\.BYTE\[0\]\.B\.Q_WIRE\[0\]
*113 WORD\[5\]\.W\.BYTE\[0\]\.B\.Q_WIRE\[1\]
*114 WORD\[5\]\.W\.BYTE\[0\]\.B\.Q_WIRE\[2\]
*115 WORD\[5\]\.W\.BYTE\[0\]\.B\.Q_WIRE\[3\]
*116 WORD\[5\]\.W\.BYTE\[0\]\.B\.Q_WIRE\[4\]
*117 WORD\[5\]\.W\.BYTE\[0\]\.B\.Q_WIRE\[5\]
*118 WORD\[5\]\.W\.BYTE\[0\]\.B\.Q_WIRE\[6\]
*119 WORD\[5\]\.W\.BYTE\[0\]\.B\.Q_WIRE\[7\]
*120 WORD\[5\]\.W\.BYTE\[0\]\.B\.SEL0
*121 WORD\[5\]\.W\.BYTE\[0\]\.B\.SEL0_B
*122 WORD\[5\]\.W\.BYTE\[0\]\.B\.WE0_WIRE
*123 WORD\[6\]\.W\.BYTE\[0\]\.B\.CLK
*124 WORD\[6\]\.W\.BYTE\[0\]\.B\.CLK_B
*125 WORD\[6\]\.W\.BYTE\[0\]\.B\.GCLK
*126 WORD\[6\]\.W\.BYTE\[0\]\.B\.Q_WIRE\[0\]
*127 WORD\[6\]\.W\.BYTE\[0\]\.B\.Q_WIRE\[1\]
*128 WORD\[6\]\.W\.BYTE\[0\]\.B\.Q_WIRE\[2\]
*129 WORD\[6\]\.W\.BYTE\[0\]\.B\.Q_WIRE\[3\]
*130 WORD\[6\]\.W\.BYTE\[0\]\.B\.Q_WIRE\[4\]
*131 WORD\[6\]\.W\.BYTE\[0\]\.B\.Q_WIRE\[5\]
*132 WORD\[6\]\.W\.BYTE\[0\]\.B\.Q_WIRE\[6\]
*133 WORD\[6\]\.W\.BYTE\[0\]\.B\.Q_WIRE\[7\]
*134 WORD\[6\]\.W\.BYTE\[0\]\.B\.SEL0
*135 WORD\[6\]\.W\.BYTE\[0\]\.B\.SEL0_B
*136 WORD\[6\]\.W\.BYTE\[0\]\.B\.WE0_WIRE
*137 WORD\[7\]\.W\.BYTE\[0\]\.B\.CLK
*138 WORD\[7\]\.W\.BYTE\[0\]\.B\.CLK_B
*139 WORD\[7\]\.W\.BYTE\[0\]\.B\.GCLK
*140 WORD\[7\]\.W\.BYTE\[0\]\.B\.Q_WIRE\[0\]
*141 WORD\[7\]\.W\.BYTE\[0\]\.B\.Q_WIRE\[1\]
*142 WORD\[7\]\.W\.BYTE\[0\]\.B\.Q_WIRE\[2\]
*143 WORD\[7\]\.W\.BYTE\[0\]\.B\.Q_WIRE\[3\]
*144 WORD\[7\]\.W\.BYTE\[0\]\.B\.Q_WIRE\[4\]
*145 WORD\[7\]\.W\.BYTE\[0\]\.B\.Q_WIRE\[5\]
*146 WORD\[7\]\.W\.BYTE\[0\]\.B\.Q_WIRE\[6\]
*147 WORD\[7\]\.W\.BYTE\[0\]\.B\.Q_WIRE\[7\]
*148 WORD\[7\]\.W\.BYTE\[0\]\.B\.SEL0
*149 WORD\[7\]\.W\.BYTE\[0\]\.B\.SEL0_B
*150 WORD\[7\]\.W\.BYTE\[0\]\.B\.WE0_WIRE
*151 CLKBUF\.__cell__
*152 DEC0\.ABUF\[0\]
*153 DEC0\.ABUF\[1\]
*154 DEC0\.ABUF\[2\]
*155 DEC0\.AND0
*156 DEC0\.AND1
*157 DEC0\.AND2
*158 DEC0\.AND3
*159 DEC0\.AND4
*160 DEC0\.AND5
*161 DEC0\.AND6
*162 DEC0\.AND7
*163 DEC0\.ENBUF
*164 WEBUF\[0\]\.__cell__
*165 WORD\[0\]\.W\.BYTE\[0\]\.B\.BIT\[0\]\.OBUF0
*166 WORD\[0\]\.W\.BYTE\[0\]\.B\.BIT\[0\]\.genblk1\.STORAGE
*167 WORD\[0\]\.W\.BYTE\[0\]\.B\.BIT\[1\]\.OBUF0
*168 WORD\[0\]\.W\.BYTE\[0\]\.B\.BIT\[1\]\.genblk1\.STORAGE
*169 WORD\[0\]\.W\.BYTE\[0\]\.B\.BIT\[2\]\.OBUF0
*170 WORD\[0\]\.W\.BYTE\[0\]\.B\.BIT\[2\]\.genblk1\.STORAGE
*171 WORD\[0\]\.W\.BYTE\[0\]\.B\.BIT\[3\]\.OBUF0
*172 WORD\[0\]\.W\.BYTE\[0\]\.B\.BIT\[3\]\.genblk1\.STORAGE
*173 WORD\[0\]\.W\.BYTE\[0\]\.B\.BIT\[4\]\.OBUF0
*174 WORD\[0\]\.W\.BYTE\[0\]\.B\.BIT\[4\]\.genblk1\.STORAGE
*175 WORD\[0\]\.W\.BYTE\[0\]\.B\.BIT\[5\]\.OBUF0
*176 WORD\[0\]\.W\.BYTE\[0\]\.B\.BIT\[5\]\.genblk1\.STORAGE
*177 WORD\[0\]\.W\.BYTE\[0\]\.B\.BIT\[6\]\.OBUF0
*178 WORD\[0\]\.W\.BYTE\[0\]\.B\.BIT\[6\]\.genblk1\.STORAGE
*179 WORD\[0\]\.W\.BYTE\[0\]\.B\.BIT\[7\]\.OBUF0
*180 WORD\[0\]\.W\.BYTE\[0\]\.B\.BIT\[7\]\.genblk1\.STORAGE
*181 WORD\[0\]\.W\.BYTE\[0\]\.B\.CGAND
*182 WORD\[0\]\.W\.BYTE\[0\]\.B\.DIODE_CLK
*183 WORD\[0\]\.W\.BYTE\[0\]\.B\.SEL0INV
*184 WORD\[0\]\.W\.BYTE\[0\]\.B\.genblk1\.CG
*185 WORD\[0\]\.W\.BYTE\[0\]\.B\.genblk1\.CLKINV
*186 WORD\[0\]\.W\.CLKBUF
*187 WORD\[0\]\.W\.SEL0BUF
*188 WORD\[1\]\.W\.BYTE\[0\]\.B\.BIT\[0\]\.OBUF0
*189 WORD\[1\]\.W\.BYTE\[0\]\.B\.BIT\[0\]\.genblk1\.STORAGE
*190 WORD\[1\]\.W\.BYTE\[0\]\.B\.BIT\[1\]\.OBUF0
*191 WORD\[1\]\.W\.BYTE\[0\]\.B\.BIT\[1\]\.genblk1\.STORAGE
*192 WORD\[1\]\.W\.BYTE\[0\]\.B\.BIT\[2\]\.OBUF0
*193 WORD\[1\]\.W\.BYTE\[0\]\.B\.BIT\[2\]\.genblk1\.STORAGE
*194 WORD\[1\]\.W\.BYTE\[0\]\.B\.BIT\[3\]\.OBUF0
*195 WORD\[1\]\.W\.BYTE\[0\]\.B\.BIT\[3\]\.genblk1\.STORAGE
*196 WORD\[1\]\.W\.BYTE\[0\]\.B\.BIT\[4\]\.OBUF0
*197 WORD\[1\]\.W\.BYTE\[0\]\.B\.BIT\[4\]\.genblk1\.STORAGE
*198 WORD\[1\]\.W\.BYTE\[0\]\.B\.BIT\[5\]\.OBUF0
*199 WORD\[1\]\.W\.BYTE\[0\]\.B\.BIT\[5\]\.genblk1\.STORAGE
*200 WORD\[1\]\.W\.BYTE\[0\]\.B\.BIT\[6\]\.OBUF0
*201 WORD\[1\]\.W\.BYTE\[0\]\.B\.BIT\[6\]\.genblk1\.STORAGE
*202 WORD\[1\]\.W\.BYTE\[0\]\.B\.BIT\[7\]\.OBUF0
*203 WORD\[1\]\.W\.BYTE\[0\]\.B\.BIT\[7\]\.genblk1\.STORAGE
*204 WORD\[1\]\.W\.BYTE\[0\]\.B\.CGAND
*205 WORD\[1\]\.W\.BYTE\[0\]\.B\.DIODE_CLK
*206 WORD\[1\]\.W\.BYTE\[0\]\.B\.SEL0INV
*207 WORD\[1\]\.W\.BYTE\[0\]\.B\.genblk1\.CG
*208 WORD\[1\]\.W\.BYTE\[0\]\.B\.genblk1\.CLKINV
*209 WORD\[1\]\.W\.CLKBUF
*210 WORD\[1\]\.W\.SEL0BUF
*211 WORD\[2\]\.W\.BYTE\[0\]\.B\.BIT\[0\]\.OBUF0
*212 WORD\[2\]\.W\.BYTE\[0\]\.B\.BIT\[0\]\.genblk1\.STORAGE
*213 WORD\[2\]\.W\.BYTE\[0\]\.B\.BIT\[1\]\.OBUF0
*214 WORD\[2\]\.W\.BYTE\[0\]\.B\.BIT\[1\]\.genblk1\.STORAGE
*215 WORD\[2\]\.W\.BYTE\[0\]\.B\.BIT\[2\]\.OBUF0
*216 WORD\[2\]\.W\.BYTE\[0\]\.B\.BIT\[2\]\.genblk1\.STORAGE
*217 WORD\[2\]\.W\.BYTE\[0\]\.B\.BIT\[3\]\.OBUF0
*218 WORD\[2\]\.W\.BYTE\[0\]\.B\.BIT\[3\]\.genblk1\.STORAGE
*219 WORD\[2\]\.W\.BYTE\[0\]\.B\.BIT\[4\]\.OBUF0
*220 WORD\[2\]\.W\.BYTE\[0\]\.B\.BIT\[4\]\.genblk1\.STORAGE
*221 WORD\[2\]\.W\.BYTE\[0\]\.B\.BIT\[5\]\.OBUF0
*222 WORD\[2\]\.W\.BYTE\[0\]\.B\.BIT\[5\]\.genblk1\.STORAGE
*223 WORD\[2\]\.W\.BYTE\[0\]\.B\.BIT\[6\]\.OBUF0
*224 WORD\[2\]\.W\.BYTE\[0\]\.B\.BIT\[6\]\.genblk1\.STORAGE
*225 WORD\[2\]\.W\.BYTE\[0\]\.B\.BIT\[7\]\.OBUF0
*226 WORD\[2\]\.W\.BYTE\[0\]\.B\.BIT\[7\]\.genblk1\.STORAGE
*227 WORD\[2\]\.W\.BYTE\[0\]\.B\.CGAND
*228 WORD\[2\]\.W\.BYTE\[0\]\.B\.DIODE_CLK
*229 WORD\[2\]\.W\.BYTE\[0\]\.B\.SEL0INV
*230 WORD\[2\]\.W\.BYTE\[0\]\.B\.genblk1\.CG
*231 WORD\[2\]\.W\.BYTE\[0\]\.B\.genblk1\.CLKINV
*232 WORD\[2\]\.W\.CLKBUF
*233 WORD\[2\]\.W\.SEL0BUF
*234 WORD\[3\]\.W\.BYTE\[0\]\.B\.BIT\[0\]\.OBUF0
*235 WORD\[3\]\.W\.BYTE\[0\]\.B\.BIT\[0\]\.genblk1\.STORAGE
*236 WORD\[3\]\.W\.BYTE\[0\]\.B\.BIT\[1\]\.OBUF0
*237 WORD\[3\]\.W\.BYTE\[0\]\.B\.BIT\[1\]\.genblk1\.STORAGE
*238 WORD\[3\]\.W\.BYTE\[0\]\.B\.BIT\[2\]\.OBUF0
*239 WORD\[3\]\.W\.BYTE\[0\]\.B\.BIT\[2\]\.genblk1\.STORAGE
*240 WORD\[3\]\.W\.BYTE\[0\]\.B\.BIT\[3\]\.OBUF0
*241 WORD\[3\]\.W\.BYTE\[0\]\.B\.BIT\[3\]\.genblk1\.STORAGE
*242 WORD\[3\]\.W\.BYTE\[0\]\.B\.BIT\[4\]\.OBUF0
*243 WORD\[3\]\.W\.BYTE\[0\]\.B\.BIT\[4\]\.genblk1\.STORAGE
*244 WORD\[3\]\.W\.BYTE\[0\]\.B\.BIT\[5\]\.OBUF0
*245 WORD\[3\]\.W\.BYTE\[0\]\.B\.BIT\[5\]\.genblk1\.STORAGE
*246 WORD\[3\]\.W\.BYTE\[0\]\.B\.BIT\[6\]\.OBUF0
*247 WORD\[3\]\.W\.BYTE\[0\]\.B\.BIT\[6\]\.genblk1\.STORAGE
*248 WORD\[3\]\.W\.BYTE\[0\]\.B\.BIT\[7\]\.OBUF0
*249 WORD\[3\]\.W\.BYTE\[0\]\.B\.BIT\[7\]\.genblk1\.STORAGE
*250 WORD\[3\]\.W\.BYTE\[0\]\.B\.CGAND
*251 WORD\[3\]\.W\.BYTE\[0\]\.B\.DIODE_CLK
*252 WORD\[3\]\.W\.BYTE\[0\]\.B\.SEL0INV
*253 WORD\[3\]\.W\.BYTE\[0\]\.B\.genblk1\.CG
*254 WORD\[3\]\.W\.BYTE\[0\]\.B\.genblk1\.CLKINV
*255 WORD\[3\]\.W\.CLKBUF
*256 WORD\[3\]\.W\.SEL0BUF
*257 WORD\[4\]\.W\.BYTE\[0\]\.B\.BIT\[0\]\.OBUF0
*258 WORD\[4\]\.W\.BYTE\[0\]\.B\.BIT\[0\]\.genblk1\.STORAGE
*259 WORD\[4\]\.W\.BYTE\[0\]\.B\.BIT\[1\]\.OBUF0
*260 WORD\[4\]\.W\.BYTE\[0\]\.B\.BIT\[1\]\.genblk1\.STORAGE
*261 WORD\[4\]\.W\.BYTE\[0\]\.B\.BIT\[2\]\.OBUF0
*262 WORD\[4\]\.W\.BYTE\[0\]\.B\.BIT\[2\]\.genblk1\.STORAGE
*263 WORD\[4\]\.W\.BYTE\[0\]\.B\.BIT\[3\]\.OBUF0
*264 WORD\[4\]\.W\.BYTE\[0\]\.B\.BIT\[3\]\.genblk1\.STORAGE
*265 WORD\[4\]\.W\.BYTE\[0\]\.B\.BIT\[4\]\.OBUF0
*266 WORD\[4\]\.W\.BYTE\[0\]\.B\.BIT\[4\]\.genblk1\.STORAGE
*267 WORD\[4\]\.W\.BYTE\[0\]\.B\.BIT\[5\]\.OBUF0
*268 WORD\[4\]\.W\.BYTE\[0\]\.B\.BIT\[5\]\.genblk1\.STORAGE
*269 WORD\[4\]\.W\.BYTE\[0\]\.B\.BIT\[6\]\.OBUF0
*270 WORD\[4\]\.W\.BYTE\[0\]\.B\.BIT\[6\]\.genblk1\.STORAGE
*271 WORD\[4\]\.W\.BYTE\[0\]\.B\.BIT\[7\]\.OBUF0
*272 WORD\[4\]\.W\.BYTE\[0\]\.B\.BIT\[7\]\.genblk1\.STORAGE
*273 WORD\[4\]\.W\.BYTE\[0\]\.B\.CGAND
*274 WORD\[4\]\.W\.BYTE\[0\]\.B\.DIODE_CLK
*275 WORD\[4\]\.W\.BYTE\[0\]\.B\.SEL0INV
*276 WORD\[4\]\.W\.BYTE\[0\]\.B\.genblk1\.CG
*277 WORD\[4\]\.W\.BYTE\[0\]\.B\.genblk1\.CLKINV
*278 WORD\[4\]\.W\.CLKBUF
*279 WORD\[4\]\.W\.SEL0BUF
*280 WORD\[5\]\.W\.BYTE\[0\]\.B\.BIT\[0\]\.OBUF0
*281 WORD\[5\]\.W\.BYTE\[0\]\.B\.BIT\[0\]\.genblk1\.STORAGE
*282 WORD\[5\]\.W\.BYTE\[0\]\.B\.BIT\[1\]\.OBUF0
*283 WORD\[5\]\.W\.BYTE\[0\]\.B\.BIT\[1\]\.genblk1\.STORAGE
*284 WORD\[5\]\.W\.BYTE\[0\]\.B\.BIT\[2\]\.OBUF0
*285 WORD\[5\]\.W\.BYTE\[0\]\.B\.BIT\[2\]\.genblk1\.STORAGE
*286 WORD\[5\]\.W\.BYTE\[0\]\.B\.BIT\[3\]\.OBUF0
*287 WORD\[5\]\.W\.BYTE\[0\]\.B\.BIT\[3\]\.genblk1\.STORAGE
*288 WORD\[5\]\.W\.BYTE\[0\]\.B\.BIT\[4\]\.OBUF0
*289 WORD\[5\]\.W\.BYTE\[0\]\.B\.BIT\[4\]\.genblk1\.STORAGE
*290 WORD\[5\]\.W\.BYTE\[0\]\.B\.BIT\[5\]\.OBUF0
*291 WORD\[5\]\.W\.BYTE\[0\]\.B\.BIT\[5\]\.genblk1\.STORAGE
*292 WORD\[5\]\.W\.BYTE\[0\]\.B\.BIT\[6\]\.OBUF0
*293 WORD\[5\]\.W\.BYTE\[0\]\.B\.BIT\[6\]\.genblk1\.STORAGE
*294 WORD\[5\]\.W\.BYTE\[0\]\.B\.BIT\[7\]\.OBUF0
*295 WORD\[5\]\.W\.BYTE\[0\]\.B\.BIT\[7\]\.genblk1\.STORAGE
*296 WORD\[5\]\.W\.BYTE\[0\]\.B\.CGAND
*297 WORD\[5\]\.W\.BYTE\[0\]\.B\.DIODE_CLK
*298 WORD\[5\]\.W\.BYTE\[0\]\.B\.SEL0INV
*299 WORD\[5\]\.W\.BYTE\[0\]\.B\.genblk1\.CG
*300 WORD\[5\]\.W\.BYTE\[0\]\.B\.genblk1\.CLKINV
*301 WORD\[5\]\.W\.CLKBUF
*302 WORD\[5\]\.W\.SEL0BUF
*303 WORD\[6\]\.W\.BYTE\[0\]\.B\.BIT\[0\]\.OBUF0
*304 WORD\[6\]\.W\.BYTE\[0\]\.B\.BIT\[0\]\.genblk1\.STORAGE
*305 WORD\[6\]\.W\.BYTE\[0\]\.B\.BIT\[1\]\.OBUF0
*306 WORD\[6\]\.W\.BYTE\[0\]\.B\.BIT\[1\]\.genblk1\.STORAGE
*307 WORD\[6\]\.W\.BYTE\[0\]\.B\.BIT\[2\]\.OBUF0
*308 WORD\[6\]\.W\.BYTE\[0\]\.B\.BIT\[2\]\.genblk1\.STORAGE
*309 WORD\[6\]\.W\.BYTE\[0\]\.B\.BIT\[3\]\.OBUF0
*310 WORD\[6\]\.W\.BYTE\[0\]\.B\.BIT\[3\]\.genblk1\.STORAGE
*311 WORD\[6\]\.W\.BYTE\[0\]\.B\.BIT\[4\]\.OBUF0
*312 WORD\[6\]\.W\.BYTE\[0\]\.B\.BIT\[4\]\.genblk1\.STORAGE
*313 WORD\[6\]\.W\.BYTE\[0\]\.B\.BIT\[5\]\.OBUF0
*314 WORD\[6\]\.W\.BYTE\[0\]\.B\.BIT\[5\]\.genblk1\.STORAGE
*315 WORD\[6\]\.W\.BYTE\[0\]\.B\.BIT\[6\]\.OBUF0
*316 WORD\[6\]\.W\.BYTE\[0\]\.B\.BIT\[6\]\.genblk1\.STORAGE
*317 WORD\[6\]\.W\.BYTE\[0\]\.B\.BIT\[7\]\.OBUF0
*318 WORD\[6\]\.W\.BYTE\[0\]\.B\.BIT\[7\]\.genblk1\.STORAGE
*319 WORD\[6\]\.W\.BYTE\[0\]\.B\.CGAND
*320 WORD\[6\]\.W\.BYTE\[0\]\.B\.DIODE_CLK
*321 WORD\[6\]\.W\.BYTE\[0\]\.B\.SEL0INV
*322 WORD\[6\]\.W\.BYTE\[0\]\.B\.genblk1\.CG
*323 WORD\[6\]\.W\.BYTE\[0\]\.B\.genblk1\.CLKINV
*324 WORD\[6\]\.W\.CLKBUF
*325 WORD\[6\]\.W\.SEL0BUF
*326 WORD\[7\]\.W\.BYTE\[0\]\.B\.BIT\[0\]\.OBUF0
*327 WORD\[7\]\.W\.BYTE\[0\]\.B\.BIT\[0\]\.genblk1\.STORAGE
*328 WORD\[7\]\.W\.BYTE\[0\]\.B\.BIT\[1\]\.OBUF0
*329 WORD\[7\]\.W\.BYTE\[0\]\.B\.BIT\[1\]\.genblk1\.STORAGE
*330 WORD\[7\]\.W\.BYTE\[0\]\.B\.BIT\[2\]\.OBUF0
*331 WORD\[7\]\.W\.BYTE\[0\]\.B\.BIT\[2\]\.genblk1\.STORAGE
*332 WORD\[7\]\.W\.BYTE\[0\]\.B\.BIT\[3\]\.OBUF0
*333 WORD\[7\]\.W\.BYTE\[0\]\.B\.BIT\[3\]\.genblk1\.STORAGE
*334 WORD\[7\]\.W\.BYTE\[0\]\.B\.BIT\[4\]\.OBUF0
*335 WORD\[7\]\.W\.BYTE\[0\]\.B\.BIT\[4\]\.genblk1\.STORAGE
*336 WORD\[7\]\.W\.BYTE\[0\]\.B\.BIT\[5\]\.OBUF0
*337 WORD\[7\]\.W\.BYTE\[0\]\.B\.BIT\[5\]\.genblk1\.STORAGE
*338 WORD\[7\]\.W\.BYTE\[0\]\.B\.BIT\[6\]\.OBUF0
*339 WORD\[7\]\.W\.BYTE\[0\]\.B\.BIT\[6\]\.genblk1\.STORAGE
*340 WORD\[7\]\.W\.BYTE\[0\]\.B\.BIT\[7\]\.OBUF0
*341 WORD\[7\]\.W\.BYTE\[0\]\.B\.BIT\[7\]\.genblk1\.STORAGE
*342 WORD\[7\]\.W\.BYTE\[0\]\.B\.CGAND
*343 WORD\[7\]\.W\.BYTE\[0\]\.B\.DIODE_CLK
*344 WORD\[7\]\.W\.BYTE\[0\]\.B\.SEL0INV
*345 WORD\[7\]\.W\.BYTE\[0\]\.B\.genblk1\.CG
*346 WORD\[7\]\.W\.BYTE\[0\]\.B\.genblk1\.CLKINV
*347 WORD\[7\]\.W\.CLKBUF
*348 WORD\[7\]\.W\.SEL0BUF
*349 fill_0_0
*350 fill_1_0
*351 fill_1_1
*352 fill_2_0
*353 fill_2_1
*354 fill_2_2
*355 fill_2_3
*356 fill_2_4
*357 fill_3_0
*358 fill_3_1
*359 fill_3_2
*360 fill_3_3
*361 fill_4_0
*362 fill_4_1
*363 fill_4_2
*364 fill_4_3
*365 fill_4_4
*366 fill_4_5
*367 fill_5_0
*368 fill_5_1
*369 fill_5_2
*370 fill_5_3
*371 fill_6_0
*372 fill_6_1
*373 fill_6_2
*374 fill_6_3
*375 fill_6_4
*376 fill_7_0
*377 fill_7_1
*378 fill_7_2
*379 fill_7_3
*380 fill_7_4
*381 tap_0_0
*382 tap_0_1
*383 tap_0_2
*384 tap_0_3
*385 tap_0_4
*386 tap_0_5
*387 tap_0_6
*388 tap_0_7
*389 tap_0_8
*390 tap_1_0
*391 tap_1_1
*392 tap_1_2
*393 tap_1_3
*394 tap_1_4
*395 tap_1_5
*396 tap_1_6
*397 tap_1_7
*398 tap_1_8
*399 tap_1_9
*400 tap_2_0
*401 tap_2_1
*402 tap_2_2
*403 tap_2_3
*404 tap_2_4
*405 tap_2_5
*406 tap_2_6
*407 tap_2_7
*408 tap_2_8
*409 tap_3_0
*410 tap_3_1
*411 tap_3_2
*412 tap_3_3
*413 tap_3_4
*414 tap_3_5
*415 tap_3_6
*416 tap_3_7
*417 tap_3_8
*418 tap_3_9
*419 tap_4_0
*420 tap_4_1
*421 tap_4_2
*422 tap_4_3
*423 tap_4_4
*424 tap_4_5
*425 tap_4_6
*426 tap_4_7
*427 tap_4_8
*428 tap_5_0
*429 tap_5_1
*430 tap_5_2
*431 tap_5_3
*432 tap_5_4
*433 tap_5_5
*434 tap_5_6
*435 tap_5_7
*436 tap_5_8
*437 tap_5_9
*438 tap_6_0
*439 tap_6_1
*440 tap_6_2
*441 tap_6_3
*442 tap_6_4
*443 tap_6_5
*444 tap_6_6
*445 tap_6_7
*446 tap_6_8
*447 tap_7_0
*448 tap_7_1
*449 tap_7_2
*450 tap_7_3
*451 tap_7_4
*452 tap_7_5
*453 tap_7_6
*454 tap_7_7
*455 tap_7_8
*456 tap_7_9

*PORTS
A0[0] I
A0[1] I
A0[2] I
CLK I
Di0[0] I
Di0[1] I
Di0[2] I
Di0[3] I
Di0[4] I
Di0[5] I
Di0[6] I
Di0[7] I
Do0[0] O
Do0[1] O
Do0[2] O
Do0[3] O
Do0[4] O
Do0[5] O
Do0[6] O
Do0[7] O
EN0 I
WE0 I

*D_NET *1 0.000748091
*CONN
*P A0[0] I
*I *152:A I *D sky130_fd_sc_hd__clkbuf_2
*CAP
1 A0[0] 0.000239314
2 *152:A 0.000239314
3 *152:A *153:A 0
4 *152:A *163:A 0.000237595
5 *152:A *26:6 3.18676e-05
6 *152:A *26:19 0
7 *152:A *26:28 0
*RES
1 A0[0] *152:A 21.369 
*END

*D_NET *2 0.00108868
*CONN
*P A0[1] I
*I *153:A I *D sky130_fd_sc_hd__clkbuf_2
*CAP
1 A0[1] 0.000315465
2 *153:A 0.000315465
3 *153:A *154:A 0.000140608
4 *153:A *157:B_N 0
5 *153:A *163:A 0.000259997
6 *153:A *26:30 0
7 *153:A *27:8 5.71472e-05
8 *152:A *153:A 0
*RES
1 A0[1] *153:A 22.9226 
*END

*D_NET *3 0.00112749
*CONN
*P A0[2] I
*I *154:A I *D sky130_fd_sc_hd__clkbuf_2
*CAP
1 A0[2] 0.000441766
2 *154:A 0.000441766
3 *154:A *151:A 0
4 *154:A *163:A 4.7054e-05
5 *154:A *26:30 0
6 *154:A *26:45 0
7 *154:A *28:6 5.62995e-05
8 *153:A *154:A 0.000140608
*RES
1 A0[2] *154:A 24.2804 
*END

*D_NET *4 0.00269764
*CONN
*P CLK I
*I *151:A I *D sky130_fd_sc_hd__clkbuf_2
*CAP
1 CLK 0.00118618
2 *151:A 0.00118618
3 *151:A Do0[7] 0
4 *151:A *164:A 0
5 *151:A *186:A 0
6 *151:A *12:31 0.000239579
7 *151:A *25:28 0
8 *151:A *25:39 0
9 *151:A *25:48 0
10 *151:A *25:59 0
11 *151:A *25:68 0
12 *151:A *27:67 5.98293e-05
13 *151:A *27:80 2.58689e-05
14 *154:A *151:A 0
*RES
1 CLK *151:A 29.6127 
*END

*D_NET *5 0.00525374
*CONN
*P Di0[0] I
*I *327:D I *D sky130_fd_sc_hd__dlxtp_1
*I *304:D I *D sky130_fd_sc_hd__dlxtp_1
*I *281:D I *D sky130_fd_sc_hd__dlxtp_1
*I *258:D I *D sky130_fd_sc_hd__dlxtp_1
*I *235:D I *D sky130_fd_sc_hd__dlxtp_1
*I *212:D I *D sky130_fd_sc_hd__dlxtp_1
*I *189:D I *D sky130_fd_sc_hd__dlxtp_1
*I *166:D I *D sky130_fd_sc_hd__dlxtp_1
*CAP
1 Di0[0] 0.000243298
2 *327:D 0.000254482
3 *304:D 7.9322e-05
4 *281:D 8.06996e-05
5 *258:D 7.9322e-05
6 *235:D 8.06996e-05
7 *212:D 7.9322e-05
8 *189:D 8.06996e-05
9 *166:D 7.9322e-05
10 *5:79 0.000480182
11 *5:68 0.00040086
12 *5:57 0.000399483
13 *5:46 0.00040086
14 *5:35 0.000399483
15 *5:24 0.00040596
16 *5:13 0.000501502
17 *166:D *166:GATE 0.000230475
18 *189:D *189:GATE 7.15846e-05
19 *212:D *212:GATE 0.000230475
20 *235:D *235:GATE 7.15846e-05
21 *258:D *258:GATE 0.000230475
22 *281:D *281:GATE 7.15846e-05
23 *304:D *304:GATE 0.000230475
24 *327:D Do0[0] 0
25 *327:D *327:GATE 7.15846e-05
26 *327:D *13:16 0
27 *5:24 *165:Z 0
28 *5:24 *13:32 0
29 *5:35 *13:32 0
*RES
1 Di0[0] *5:13 5.08929 
2 *5:13 *166:D 15.9786 
3 *5:13 *5:24 2.85714 
4 *5:24 *189:D 15.5679 
5 *5:24 *5:35 2.25 
6 *5:35 *212:D 15.9786 
7 *5:35 *5:46 2.85714 
8 *5:46 *235:D 15.5679 
9 *5:46 *5:57 2.25 
10 *5:57 *258:D 15.9786 
11 *5:57 *5:68 2.85714 
12 *5:68 *281:D 15.5679 
13 *5:68 *5:79 2.25 
14 *5:79 *304:D 15.9786 
15 *5:79 *327:D 18.425 
*END

*D_NET *6 0.0046735
*CONN
*P Di0[1] I
*I *329:D I *D sky130_fd_sc_hd__dlxtp_1
*I *306:D I *D sky130_fd_sc_hd__dlxtp_1
*I *283:D I *D sky130_fd_sc_hd__dlxtp_1
*I *260:D I *D sky130_fd_sc_hd__dlxtp_1
*I *237:D I *D sky130_fd_sc_hd__dlxtp_1
*I *214:D I *D sky130_fd_sc_hd__dlxtp_1
*I *191:D I *D sky130_fd_sc_hd__dlxtp_1
*I *168:D I *D sky130_fd_sc_hd__dlxtp_1
*CAP
1 Di0[1] 0.00066324
2 *329:D 0.000219374
3 *306:D 4.80971e-05
4 *283:D 1.55834e-05
5 *260:D 4.80971e-05
6 *237:D 0
7 *214:D 4.04016e-05
8 *191:D 0
9 *168:D 1.4295e-05
10 *6:97 0.000393091
11 *6:86 0.000343329
12 *6:73 0.00042743
13 *6:60 0.000396141
14 *6:47 0.000382681
15 *6:38 0.000308248
16 *6:27 0.000862438
17 *168:D *165:TE_B 3.18676e-05
18 *168:D *41:20 1.92789e-05
19 *214:D *211:TE_B 2.89016e-05
20 *214:D *69:20 1.92789e-05
21 *260:D *257:TE_B 5.33334e-05
22 *260:D *97:20 3.67142e-05
23 *283:D *280:TE_B 5.52238e-05
24 *283:D *111:26 1.92789e-05
25 *306:D *303:TE_B 5.33334e-05
26 *306:D *125:20 3.67142e-05
27 *329:D *326:TE_B 5.52238e-05
28 *329:D *13:20 0
29 *329:D *139:26 1.92789e-05
30 *6:27 *165:TE_B 4.58976e-05
31 *6:27 *167:A 0
32 *6:27 *7:23 0
33 *6:27 *41:20 3.67257e-05
34 *6:38 *165:Z 0
35 *6:38 *190:A 0
36 *6:38 *13:32 0
37 *6:47 *190:A 0
38 *6:47 *13:32 0
39 *6:60 *13:24 0
40 *6:60 *13:26 0
41 *6:60 *13:32 0
42 *6:73 *13:24 0
43 *6:86 *13:20 0
44 *6:86 *13:22 0
45 *6:86 *13:24 0
46 *6:97 *13:20 0
*RES
1 Di0[1] *6:27 24.3214 
2 *6:27 *168:D 9.83571 
3 *6:27 *6:38 7.35714 
4 *6:38 *191:D 13.8 
5 *6:38 *6:47 1.94643 
6 *6:47 *214:D 14.7643 
7 *6:47 *6:60 3.16071 
8 *6:60 *237:D 13.8 
9 *6:60 *6:73 2.60714 
10 *6:73 *260:D 15.175 
11 *6:73 *6:86 3.16071 
12 *6:86 *283:D 14.3357 
13 *6:86 *6:97 1.94643 
14 *6:97 *306:D 15.175 
15 *6:97 *329:D 17.4964 
*END

*D_NET *7 0.00493048
*CONN
*P Di0[2] I
*I *331:D I *D sky130_fd_sc_hd__dlxtp_1
*I *308:D I *D sky130_fd_sc_hd__dlxtp_1
*I *285:D I *D sky130_fd_sc_hd__dlxtp_1
*I *262:D I *D sky130_fd_sc_hd__dlxtp_1
*I *239:D I *D sky130_fd_sc_hd__dlxtp_1
*I *216:D I *D sky130_fd_sc_hd__dlxtp_1
*I *193:D I *D sky130_fd_sc_hd__dlxtp_1
*I *170:D I *D sky130_fd_sc_hd__dlxtp_1
*CAP
1 Di0[2] 0.000906724
2 *331:D 0.000223493
3 *308:D 4.04016e-05
4 *285:D 0
5 *262:D 4.04016e-05
6 *239:D 0
7 *216:D 3.90596e-05
8 *193:D 0
9 *170:D 1.4295e-05
10 *7:87 0.00038724
11 *7:78 0.000346838
12 *7:65 0.00038724
13 *7:56 0.000337835
14 *7:43 0.000378183
15 *7:34 0.000313531
16 *7:23 0.00110992
17 *170:D *41:16 1.92789e-05
18 *170:D *51:34 3.18676e-05
19 *216:D *69:16 1.40306e-05
20 *216:D *79:34 5.52238e-05
21 *262:D *97:16 1.92789e-05
22 *262:D *107:44 2.89016e-05
23 *308:D *125:16 1.92789e-05
24 *308:D *135:32 2.89016e-05
25 *331:D Do0[1] 0
26 *331:D *14:8 0
27 *331:D *14:10 0
28 *7:23 *169:A 1.3701e-05
29 *7:23 *8:23 8.49861e-06
30 *7:23 *41:16 7.15962e-05
31 *7:23 *51:34 9.47613e-05
32 *7:34 *167:Z 0
33 *7:34 *192:A 0
34 *7:34 *14:18 0
35 *7:43 *192:A 0
36 *7:43 *14:18 0
37 *7:56 *14:14 0
38 *7:56 *14:16 0
39 *7:56 *14:18 0
40 *7:65 *14:14 0
41 *7:78 *14:10 0
42 *7:78 *14:12 0
43 *7:78 *14:14 0
44 *7:87 *14:10 0
45 *6:27 *7:23 0
*RES
1 Di0[2] *7:23 26.4464 
2 *7:23 *170:D 9.83571 
3 *7:23 *7:34 7.35714 
4 *7:34 *193:D 13.8 
5 *7:34 *7:43 1.94643 
6 *7:43 *216:D 14.7643 
7 *7:43 *7:56 3.16071 
8 *7:56 *239:D 13.8 
9 *7:56 *7:65 1.94643 
10 *7:65 *262:D 14.7643 
11 *7:65 *7:78 3.16071 
12 *7:78 *285:D 13.8 
13 *7:78 *7:87 1.94643 
14 *7:87 *308:D 14.7643 
15 *7:87 *331:D 16.9607 
*END

*D_NET *8 0.0065788
*CONN
*P Di0[3] I
*I *333:D I *D sky130_fd_sc_hd__dlxtp_1
*I *310:D I *D sky130_fd_sc_hd__dlxtp_1
*I *287:D I *D sky130_fd_sc_hd__dlxtp_1
*I *264:D I *D sky130_fd_sc_hd__dlxtp_1
*I *241:D I *D sky130_fd_sc_hd__dlxtp_1
*I *218:D I *D sky130_fd_sc_hd__dlxtp_1
*I *195:D I *D sky130_fd_sc_hd__dlxtp_1
*I *172:D I *D sky130_fd_sc_hd__dlxtp_1
*CAP
1 Di0[3] 0.00115385
2 *333:D 0.000234765
3 *310:D 6.34882e-05
4 *287:D 2.88643e-05
5 *264:D 6.34882e-05
6 *241:D 0
7 *218:D 4.04016e-05
8 *195:D 0
9 *172:D 1.4295e-05
10 *8:93 0.000423873
11 *8:82 0.000361168
12 *8:69 0.000568973
13 *8:56 0.000500152
14 *8:43 0.000368176
15 *8:34 0.000298772
16 *8:23 0.0013405
17 *172:D *41:14 1.92789e-05
18 *172:D *51:32 3.18676e-05
19 *218:D *69:14 1.92789e-05
20 *218:D *79:32 2.89016e-05
21 *264:D *263:TE_B 0
22 *264:D *97:14 7.15846e-05
23 *264:D *107:42 0.000102197
24 *287:D *111:22 5.41494e-05
25 *287:D *121:34 0.00014285
26 *310:D *309:TE_B 0
27 *310:D *125:14 7.15846e-05
28 *310:D *135:30 0.000102197
29 *333:D *15:12 0
30 *333:D *15:14 0
31 *333:D *139:22 5.41494e-05
32 *333:D *149:34 0.00014285
33 *8:23 *171:TE_B 0
34 *8:23 *9:23 6.04198e-05
35 *8:23 *41:14 8.90314e-05
36 *8:23 *51:32 0.000119193
37 *8:34 *169:Z 0
38 *8:34 *194:A 0
39 *8:43 *169:Z 0
40 *8:43 *194:A 0
41 *8:43 *15:22 0
42 *8:56 *15:20 0
43 *8:56 *15:22 0
44 *8:69 *15:18 0
45 *8:69 *15:20 0
46 *8:82 *15:14 0
47 *8:82 *15:16 0
48 *8:82 *15:18 0
49 *8:93 *15:14 0
50 *7:23 *8:23 8.49861e-06
*RES
1 Di0[3] *8:23 29.7321 
2 *8:23 *172:D 9.83571 
3 *8:23 *8:34 7.35714 
4 *8:34 *195:D 13.8 
5 *8:34 *8:43 1.94643 
6 *8:43 *218:D 14.7643 
7 *8:43 *8:56 3.16071 
8 *8:56 *241:D 13.8 
9 *8:56 *8:69 3.42857 
10 *8:69 *264:D 15.9964 
11 *8:69 *8:82 3.16071 
12 *8:82 *287:D 15.1571 
13 *8:82 *8:93 1.94643 
14 *8:93 *310:D 15.9964 
15 *8:93 *333:D 18.3179 
*END

*D_NET *9 0.00525012
*CONN
*P Di0[4] I
*I *335:D I *D sky130_fd_sc_hd__dlxtp_1
*I *312:D I *D sky130_fd_sc_hd__dlxtp_1
*I *289:D I *D sky130_fd_sc_hd__dlxtp_1
*I *266:D I *D sky130_fd_sc_hd__dlxtp_1
*I *243:D I *D sky130_fd_sc_hd__dlxtp_1
*I *220:D I *D sky130_fd_sc_hd__dlxtp_1
*I *197:D I *D sky130_fd_sc_hd__dlxtp_1
*I *174:D I *D sky130_fd_sc_hd__dlxtp_1
*CAP
1 Di0[4] 0.000922947
2 *335:D 0.000201352
3 *312:D 4.04016e-05
4 *289:D 0
5 *266:D 4.04016e-05
6 *243:D 0
7 *220:D 4.04016e-05
8 *197:D 0
9 *174:D 1.4295e-05
10 *9:87 0.000368176
11 *9:78 0.000327774
12 *9:65 0.000368176
13 *9:56 0.000327774
14 *9:43 0.000368176
15 *9:34 0.000298772
16 *9:23 0.00110959
17 *174:D *41:12 1.92789e-05
18 *174:D *51:30 3.18676e-05
19 *220:D *69:12 1.92789e-05
20 *220:D *79:30 2.89016e-05
21 *266:D *97:12 1.92789e-05
22 *266:D *107:40 2.89016e-05
23 *312:D *125:12 1.92789e-05
24 *312:D *135:28 2.89016e-05
25 *335:D *16:8 0
26 *335:D *16:10 0
27 *9:23 *10:21 0.000315678
28 *9:23 *11:25 0
29 *9:23 *41:12 0.000106467
30 *9:23 *51:30 0.000143625
31 *9:34 *171:Z 0
32 *9:34 *196:A 0
33 *9:43 *171:Z 0
34 *9:43 *196:A 0
35 *9:43 *16:18 0
36 *9:56 *16:16 0
37 *9:56 *16:18 0
38 *9:65 *16:14 0
39 *9:65 *16:16 0
40 *9:78 *16:12 0
41 *9:78 *16:14 0
42 *9:87 *16:10 0
43 *9:87 *16:12 0
44 *8:23 *9:23 6.04198e-05
*RES
1 Di0[4] *9:23 34.8393 
2 *9:23 *174:D 9.83571 
3 *9:23 *9:34 7.35714 
4 *9:34 *197:D 13.8 
5 *9:34 *9:43 1.94643 
6 *9:43 *220:D 14.7643 
7 *9:43 *9:56 3.16071 
8 *9:56 *243:D 13.8 
9 *9:56 *9:65 1.94643 
10 *9:65 *266:D 14.7643 
11 *9:65 *9:78 3.16071 
12 *9:78 *289:D 13.8 
13 *9:78 *9:87 1.94643 
14 *9:87 *312:D 14.7643 
15 *9:87 *335:D 16.9607 
*END

*D_NET *10 0.00669216
*CONN
*P Di0[5] I
*I *337:D I *D sky130_fd_sc_hd__dlxtp_1
*I *314:D I *D sky130_fd_sc_hd__dlxtp_1
*I *291:D I *D sky130_fd_sc_hd__dlxtp_1
*I *268:D I *D sky130_fd_sc_hd__dlxtp_1
*I *245:D I *D sky130_fd_sc_hd__dlxtp_1
*I *222:D I *D sky130_fd_sc_hd__dlxtp_1
*I *199:D I *D sky130_fd_sc_hd__dlxtp_1
*I *176:D I *D sky130_fd_sc_hd__dlxtp_1
*CAP
1 Di0[5] 0.0016837
2 *337:D 0.000201352
3 *314:D 4.04016e-05
4 *291:D 0
5 *268:D 1.17541e-05
6 *245:D 1.79896e-05
7 *222:D 0
8 *199:D 1.79896e-05
9 *176:D 0
10 *10:85 0.000368176
11 *10:76 0.000333254
12 *10:61 0.000346546
13 *10:50 0.000336989
14 *10:41 0.000329151
15 *10:30 0.00035045
16 *10:21 0.00187804
17 *199:D *55:24 1.92905e-05
18 *199:D *65:38 2.89114e-05
19 *245:D *83:18 1.92905e-05
20 *245:D *93:24 2.89114e-05
21 *268:D *17:14 0
22 *268:D *97:10 4.08587e-06
23 *268:D *107:36 1.37693e-05
24 *314:D *125:10 1.92789e-05
25 *314:D *135:26 2.89016e-05
26 *337:D *17:8 0
27 *337:D *17:10 0
28 *10:21 *11:25 0.000298254
29 *10:30 *173:Z 0
30 *10:30 *198:A 0
31 *10:41 *173:Z 0
32 *10:41 *198:A 0
33 *10:41 *17:18 0
34 *10:50 *17:16 0
35 *10:50 *17:18 0
36 *10:61 *17:14 0
37 *10:61 *17:16 0
38 *10:76 *17:12 0
39 *10:76 *17:14 0
40 *10:85 *17:10 0
41 *10:85 *17:12 0
42 *9:23 *10:21 0.000315678
*RES
1 Di0[5] *10:21 33.125 
2 *10:21 *176:D 13.8 
3 *10:21 *10:30 2.85714 
4 *10:30 *199:D 14.3357 
5 *10:30 *10:41 2.25 
6 *10:41 *222:D 13.8 
7 *10:41 *10:50 2.85714 
8 *10:50 *245:D 14.3357 
9 *10:50 *10:61 2.09821 
10 *10:61 *268:D 14.2152 
11 *10:61 *10:76 3.54464 
12 *10:76 *291:D 13.8 
13 *10:76 *10:85 1.94643 
14 *10:85 *314:D 14.7643 
15 *10:85 *337:D 16.9607 
*END

*D_NET *11 0.00614544
*CONN
*P Di0[6] I
*I *339:D I *D sky130_fd_sc_hd__dlxtp_1
*I *316:D I *D sky130_fd_sc_hd__dlxtp_1
*I *293:D I *D sky130_fd_sc_hd__dlxtp_1
*I *270:D I *D sky130_fd_sc_hd__dlxtp_1
*I *247:D I *D sky130_fd_sc_hd__dlxtp_1
*I *224:D I *D sky130_fd_sc_hd__dlxtp_1
*I *201:D I *D sky130_fd_sc_hd__dlxtp_1
*I *178:D I *D sky130_fd_sc_hd__dlxtp_1
*CAP
1 Di0[6] 0.00128236
2 *339:D 0.000188358
3 *316:D 1.55834e-05
4 *293:D 0
5 *270:D 4.04016e-05
6 *247:D 0
7 *224:D 4.04016e-05
8 *201:D 0
9 *178:D 3.63951e-05
10 *11:91 0.000361688
11 *11:82 0.000371487
12 *11:69 0.000380555
13 *11:60 0.000327765
14 *11:47 0.000368176
15 *11:38 0.000326567
16 *11:25 0.0015189
17 *178:D *41:8 1.40306e-05
18 *178:D *51:24 5.71472e-05
19 *224:D *69:8 1.92789e-05
20 *224:D *79:26 2.89016e-05
21 *270:D *97:8 1.92789e-05
22 *270:D *107:34 2.89016e-05
23 *316:D *125:8 1.92789e-05
24 *316:D *135:24 5.52238e-05
25 *339:D *18:14 0
26 *339:D *18:16 0
27 *11:25 *38:22 8.49861e-06
28 *11:25 *41:8 7.70589e-05
29 *11:25 *51:24 0.000260954
30 *11:38 *175:Z 0
31 *11:38 *200:A 0
32 *11:47 *175:Z 0
33 *11:47 *200:A 0
34 *11:47 *18:24 0
35 *11:47 *65:36 0
36 *11:60 *18:22 0
37 *11:60 *18:24 0
38 *11:69 *18:20 0
39 *11:69 *18:22 0
40 *11:82 *18:16 0
41 *11:82 *18:18 0
42 *11:82 *18:20 0
43 *11:91 *18:16 0
44 *9:23 *11:25 0
45 *10:21 *11:25 0.000298254
*RES
1 Di0[6] *11:25 41.2321 
2 *11:25 *178:D 10.2643 
3 *11:25 *11:38 7.66071 
4 *11:38 *201:D 13.8 
5 *11:38 *11:47 1.94643 
6 *11:47 *224:D 14.7643 
7 *11:47 *11:60 3.16071 
8 *11:60 *247:D 13.8 
9 *11:60 *11:69 1.94643 
10 *11:69 *270:D 14.7643 
11 *11:69 *11:82 3.16071 
12 *11:82 *293:D 13.8 
13 *11:82 *11:91 2.25 
14 *11:91 *316:D 14.3357 
15 *11:91 *339:D 16.6571 
*END

*D_NET *12 0.010116
*CONN
*P Di0[7] I
*I *272:D I *D sky130_fd_sc_hd__dlxtp_1
*I *341:D I *D sky130_fd_sc_hd__dlxtp_1
*I *318:D I *D sky130_fd_sc_hd__dlxtp_1
*I *295:D I *D sky130_fd_sc_hd__dlxtp_1
*I *249:D I *D sky130_fd_sc_hd__dlxtp_1
*I *226:D I *D sky130_fd_sc_hd__dlxtp_1