*SPEF "ieee 1481-1999"
*DESIGN "RAM8"
*DATE "11:11:11 Fri 11 11, 1111"
*VENDOR "OpenRCX"
*PROGRAM "Parallel Extraction"
*VERSION "1.0"
*DESIGN_FLOW "NAME_SCOPE LOCAL" "PIN_CAP NONE"
*DIVIDER /
*DELIMITER :
*BUS_DELIMITER []
*T_UNIT 1 NS
*C_UNIT 1 PF
*R_UNIT 1 OHM
*L_UNIT 1 HENRY

*NAME_MAP
*1 A0[0]
*2 A0[1]
*3 A0[2]
*4 CLK
*5 Di0[0]
*6 Di0[1]
*7 Di0[2]
*8 Di0[3]
*9 Di0[4]
*10 Di0[5]
*11 Di0[6]
*12 Di0[7]
*13 WORD\[0\]\.W\.BYTE\[0\]\.B\.Do0\[0\]
*14 WORD\[0\]\.W\.BYTE\[0\]\.B\.Do0\[1\]
*15 WORD\[0\]\.W\.BYTE\[0\]\.B\.Do0\[2\]
*16 WORD\[0\]\.W\.BYTE\[0\]\.B\.Do0\[3\]
*17 WORD\[0\]\.W\.BYTE\[0\]\.B\.Do0\[4\]
*18 WORD\[0\]\.W\.BYTE\[0\]\.B\.Do0\[5\]
*19 WORD\[0\]\.W\.BYTE\[0\]\.B\.Do0\[6\]
*20 WORD\[0\]\.W\.BYTE\[0\]\.B\.Do0\[7\]
*21 EN0
*24 WE0
*25 CLKBUF\.X
*26 DEC0\.A_buf\[0\]
*27 DEC0\.A_buf\[1\]
*28 DEC0\.A_buf\[2\]
*29 DEC0\.EN_buf
*30 DEC0\.SEL\[0\]
*31 DEC0\.SEL\[1\]
*32 DEC0\.SEL\[2\]
*33 DEC0\.SEL\[3\]
*34 DEC0\.SEL\[4\]
*35 DEC0\.SEL\[5\]
*36 DEC0\.SEL\[6\]
*37 DEC0\.SEL\[7\]
*38 WEBUF\[0\]\.X
*39 WORD\[0\]\.W\.BYTE\[0\]\.B\.CLK
*40 WORD\[0\]\.W\.BYTE\[0\]\.B\.CLK_B
*41 WORD\[0\]\.W\.BYTE\[0\]\.B\.GCLK
*42 WORD\[0\]\.W\.BYTE\[0\]\.B\.Q_WIRE\[0\]
*43 WORD\[0\]\.W\.BYTE\[0\]\.B\.Q_WIRE\[1\]
*44 WORD\[0\]\.W\.BYTE\[0\]\.B\.Q_WIRE\[2\]
*45 WORD\[0\]\.W\.BYTE\[0\]\.B\.Q_WIRE\[3\]
*46 WORD\[0\]\.W\.BYTE\[0\]\.B\.Q_WIRE\[4\]
*47 WORD\[0\]\.W\.BYTE\[0\]\.B\.Q_WIRE\[5\]
*48 WORD\[0\]\.W\.BYTE\[0\]\.B\.Q_WIRE\[6\]
*49 WORD\[0\]\.W\.BYTE\[0\]\.B\.Q_WIRE\[7\]
*50 WORD\[0\]\.W\.BYTE\[0\]\.B\.SEL0
*51 WORD\[0\]\.W\.BYTE\[0\]\.B\.SEL0_B
*52 WORD\[0\]\.W\.BYTE\[0\]\.B\.WE0_WIRE
*53 WORD\[1\]\.W\.BYTE\[0\]\.B\.CLK
*54 WORD\[1\]\.W\.BYTE\[0\]\.B\.CLK_B
*55 WORD\[1\]\.W\.BYTE\[0\]\.B\.GCLK
*56 WORD\[1\]\.W\.BYTE\[0\]\.B\.Q_WIRE\[0\]
*57 WORD\[1\]\.W\.BYTE\[0\]\.B\.Q_WIRE\[1\]
*58 WORD\[1\]\.W\.BYTE\[0\]\.B\.Q_WIRE\[2\]
*59 WORD\[1\]\.W\.BYTE\[0\]\.B\.Q_WIRE\[3\]
*60 WORD\[1\]\.W\.BYTE\[0\]\.B\.Q_WIRE\[4\]
*61 WORD\[1\]\.W\.BYTE\[0\]\.B\.Q_WIRE\[5\]
*62 WORD\[1\]\.W\.BYTE\[0\]\.B\.Q_WIRE\[6\]
*63 WORD\[1\]\.W\.BYTE\[0\]\.B\.Q_WIRE\[7\]
*64 WORD\[1\]\.W\.BYTE\[0\]\.B\.SEL0
*65 WORD\[1\]\.W\.BYTE\[0\]\.B\.SEL0_B
*66 WORD\[1\]\.W\.BYTE\[0\]\.B\.WE0_WIRE
*67 WORD\[2\]\.W\.BYTE\[0\]\.B\.CLK
*68 WORD\[2\]\.W\.BYTE\[0\]\.B\.CLK_B
*69 WORD\[2\]\.W\.BYTE\[0\]\.B\.GCLK
*70 WORD\[2\]\.W\.BYTE\[0\]\.B\.Q_WIRE\[0\]
*71 WORD\[2\]\.W\.BYTE\[0\]\.B\.Q_WIRE\[1\]
*72 WORD\[2\]\.W\.BYTE\[0\]\.B\.Q_WIRE\[2\]
*73 WORD\[2\]\.W\.BYTE\[0\]\.B\.Q_WIRE\[3\]
*74 WORD\[2\]\.W\.BYTE\[0\]\.B\.Q_WIRE\[4\]
*75 WORD\[2\]\.W\.BYTE\[0\]\.B\.Q_WIRE\[5\]
*76 WORD\[2\]\.W\.BYTE\[0\]\.B\.Q_WIRE\[6\]
*77 WORD\[2\]\.W\.BYTE\[0\]\.B\.Q_WIRE\[7\]
*78 WORD\[2\]\.W\.BYTE\[0\]\.B\.SEL0
*79 WORD\[2\]\.W\.BYTE\[0\]\.B\.SEL0_B
*80 WORD\[2\]\.W\.BYTE\[0\]\.B\.WE0_WIRE
*81 WORD\[3\]\.W\.BYTE\[0\]\.B\.CLK
*82 WORD\[3\]\.W\.BYTE\[0\]\.B\.CLK_B
*83 WORD\[3\]\.W\.BYTE\[0\]\.B\.GCLK
*84 WORD\[3\]\.W\.BYTE\[0\]\.B\.Q_WIRE\[0\]
*85 WORD\[3\]\.W\.BYTE\[0\]\.B\.Q_WIRE\[1\]
*86 WORD\[3\]\.W\.BYTE\[0\]\.B\.Q_WIRE\[2\]
*87 WORD\[3\]\.W\.BYTE\[0\]\.B\.Q_WIRE\[3\]
*88 WORD\[3\]\.W\.BYTE\[0\]\.B\.Q_WIRE\[4\]
*89 WORD\[3\]\.W\.BYTE\[0\]\.B\.Q_WIRE\[5\]
*90 WORD\[3\]\.W\.BYTE\[0\]\.B\.Q_WIRE\[6\]
*91 WORD\[3\]\.W\.BYTE\[0\]\.B\.Q_WIRE\[7\]
*92 WORD\[3\]\.W\.BYTE\[0\]\.B\.SEL0
*93 WORD\[3\]\.W\.BYTE\[0\]\.B\.SEL0_B
*94 WORD\[3\]\.W\.BYTE\[0\]\.B\.WE0_WIRE
*95 WORD\[4\]\.W\.BYTE\[0\]\.B\.CLK
*96 WORD\[4\]\.W\.BYTE\[0\]\.B\.CLK_B
*97 WORD\[4\]\.W\.BYTE\[0\]\.B\.GCLK
*98 WORD\[4\]\.W\.BYTE\[0\]\.B\.Q_WIRE\[0\]
*99 WORD\[4\]\.W\.BYTE\[0\]\.B\.Q_WIRE\[1\]
*100 WORD\[4\]\.W\.BYTE\[0\]\.B\.Q_WIRE\[2\]
*101 WORD\[4\]\.W\.BYTE\[0\]\.B\.Q_WIRE\[3\]
*102 WORD\[4\]\.W\.BYTE\[0\]\.B\.Q_WIRE\[4\]
*103 WORD\[4\]\.W\.BYTE\[0\]\.B\.Q_WIRE\[5\]
*104 WORD\[4\]\.W\.BYTE\[0\]\.B\.Q_WIRE\[6\]
*105 WORD\[4\]\.W\.BYTE\[0\]\.B\.Q_WIRE\[7\]
*106 WORD\[4\]\.W\.BYTE\[0\]\.B\.SEL0
*107 WORD\[4\]\.W\.BYTE\[0\]\.B\.SEL0_B
*108 WORD\[4\]\.W\.BYTE\[0\]\.B\.WE0_WIRE
*109 WORD\[5\]\.W\.BYTE\[0\]\.B\.CLK
*110 WORD\[5\]\.W\.BYTE\[0\]\.B\.CLK_B
*111 WORD\[5\]\.W\.BYTE\[0\]\.B\.GCLK
*112 WORD\[5\]\.W\.BYTE\[0\]\.B\.Q_WIRE\[0\]
*113 WORD\[5\]\.W\.BYTE\[0\]\.B\.Q_WIRE\[1\]
*114 WORD\[5\]\.W\.BYTE\[0\]\.B\.Q_WIRE\[2\]
*115 WORD\[5\]\.W\.BYTE\[0\]\.B\.Q_WIRE\[3\]
*116 WORD\[5\]\.W\.BYTE\[0\]\.B\.Q_WIRE\[4\]
*117 WORD\[5\]\.W\.BYTE\[0\]\.B\.Q_WIRE\[5\]
*118 WORD\[5\]\.W\.BYTE\[0\]\.B\.Q_WIRE\[6\]
*119 WORD\[5\]\.W\.BYTE\[0\]\.B\.Q_WIRE\[7\]
*120 WORD\[5\]\.W\.BYTE\[0\]\.B\.SEL0
*121 WORD\[5\]\.W\.BYTE\[0\]\.B\.SEL0_B
*122 WORD\[5\]\.W\.BYTE\[0\]\.B\.WE0_WIRE
*123 WORD\[6\]\.W\.BYTE\[0\]\.B\.CLK
*124 WORD\[6\]\.W\.BYTE\[0\]\.B\.CLK_B
*125 WORD\[6\]\.W\.BYTE\[0\]\.B\.GCLK
*126 WORD\[6\]\.W\.BYTE\[0\]\.B\.Q_WIRE\[0\]
*127 WORD\[6\]\.W\.BYTE\[0\]\.B\.Q_WIRE\[1\]
*128 WORD\[6\]\.W\.BYTE\[0\]\.B\.Q_WIRE\[2\]
*129 WORD\[6\]\.W\.BYTE\[0\]\.B\.Q_WIRE\[3\]
*130 WORD\[6\]\.W\.BYTE\[0\]\.B\.Q_WIRE\[4\]
*131 WORD\[6\]\.W\.BYTE\[0\]\.B\.Q_WIRE\[5\]
*132 WORD\[6\]\.W\.BYTE\[0\]\.B\.Q_WIRE\[6\]
*133 WORD\[6\]\.W\.BYTE\[0\]\.B\.Q_WIRE\[7\]
*134 WORD\[6\]\.W\.BYTE\[0\]\.B\.SEL0
*135 WORD\[6\]\.W\.BYTE\[0\]\.B\.SEL0_B
*136 WORD\[6\]\.W\.BYTE\[0\]\.B\.WE0_WIRE
*137 WORD\[7\]\.W\.BYTE\[0\]\.B\.CLK
*138 WORD\[7\]\.W\.BYTE\[0\]\.B\.CLK_B
*139 WORD\[7\]\.W\.BYTE\[0\]\.B\.GCLK
*140 WORD\[7\]\.W\.BYTE\[0\]\.B\.Q_WIRE\[0\]
*141 WORD\[7\]\.W\.BYTE\[0\]\.B\.Q_WIRE\[1\]
*142 WORD\[7\]\.W\.BYTE\[0\]\.B\.Q_WIRE\[2\]
*143 WORD\[7\]\.W\.BYTE\[0\]\.B\.Q_WIRE\[3\]
*144 WORD\[7\]\.W\.BYTE\[0\]\.B\.Q_WIRE\[4\]
*145 WORD\[7\]\.W\.BYTE\[0\]\.B\.Q_WIRE\[5\]
*146 WORD\[7\]\.W\.BYTE\[0\]\.B\.Q_WIRE\[6\]
*147 WORD\[7\]\.W\.BYTE\[0\]\.B\.Q_WIRE\[7\]
*148 WORD\[7\]\.W\.BYTE\[0\]\.B\.SEL0
*149 WORD\[7\]\.W\.BYTE\[0\]\.B\.SEL0_B
*150 WORD\[7\]\.W\.BYTE\[0\]\.B\.WE0_WIRE
*151 CLKBUF\.__cell__
*152 DEC0\.ABUF\[0\]
*153 DEC0\.ABUF\[1\]
*154 DEC0\.ABUF\[2\]
*155 DEC0\.AND0
*156 DEC0\.AND1
*157 DEC0\.AND2
*158 DEC0\.AND3
*159 DEC0\.AND4
*160 DEC0\.AND5
*161 DEC0\.AND6
*162 DEC0\.AND7
*163 DEC0\.ENBUF
*164 WEBUF\[0\]\.__cell__
*165 WORD\[0\]\.W\.BYTE\[0\]\.B\.BIT\[0\]\.OBUF0
*166 WORD\[0\]\.W\.BYTE\[0\]\.B\.BIT\[0\]\.genblk1\.STORAGE
*167 WORD\[0\]\.W\.BYTE\[0\]\.B\.BIT\[1\]\.OBUF0
*168 WORD\[0\]\.W\.BYTE\[0\]\.B\.BIT\[1\]\.genblk1\.STORAGE
*169 WORD\[0\]\.W\.BYTE\[0\]\.B\.BIT\[2\]\.OBUF0
*170 WORD\[0\]\.W\.BYTE\[0\]\.B\.BIT\[2\]\.genblk1\.STORAGE
*171 WORD\[0\]\.W\.BYTE\[0\]\.B\.BIT\[3\]\.OBUF0
*172 WORD\[0\]\.W\.BYTE\[0\]\.B\.BIT\[3\]\.genblk1\.STORAGE
*173 WORD\[0\]\.W\.BYTE\[0\]\.B\.BIT\[4\]\.OBUF0
*174 WORD\[0\]\.W\.BYTE\[0\]\.B\.BIT\[4\]\.genblk1\.STORAGE
*175 WORD\[0\]\.W\.BYTE\[0\]\.B\.BIT\[5\]\.OBUF0
*176 WORD\[0\]\.W\.BYTE\[0\]\.B\.BIT\[5\]\.genblk1\.STORAGE
*177 WORD\[0\]\.W\.BYTE\[0\]\.B\.BIT\[6\]\.OBUF0
*178 WORD\[0\]\.W\.BYTE\[0\]\.B\.BIT\[6\]\.genblk1\.STORAGE
*179 WORD\[0\]\.W\.BYTE\[0\]\.B\.BIT\[7\]\.OBUF0
*180 WORD\[0\]\.W\.BYTE\[0\]\.B\.BIT\[7\]\.genblk1\.STORAGE
*181 WORD\[0\]\.W\.BYTE\[0\]\.B\.CGAND
*182 WORD\[0\]\.W\.BYTE\[0\]\.B\.DIODE_CLK
*183 WORD\[0\]\.W\.BYTE\[0\]\.B\.SEL0INV
*184 WORD\[0\]\.W\.BYTE\[0\]\.B\.genblk1\.CG
*185 WORD\[0\]\.W\.BYTE\[0\]\.B\.genblk1\.CLKINV
*186 WORD\[0\]\.W\.CLKBUF
*187 WORD\[0\]\.W\.SEL0BUF
*188 WORD\[1\]\.W\.BYTE\[0\]\.B\.BIT\[0\]\.OBUF0
*189 WORD\[1\]\.W\.BYTE\[0\]\.B\.BIT\[0\]\.genblk1\.STORAGE
*190 WORD\[1\]\.W\.BYTE\[0\]\.B\.BIT\[1\]\.OBUF0
*191 WORD\[1\]\.W\.BYTE\[0\]\.B\.BIT\[1\]\.genblk1\.STORAGE
*192 WORD\[1\]\.W\.BYTE\[0\]\.B\.BIT\[2\]\.OBUF0
*193 WORD\[1\]\.W\.BYTE\[0\]\.B\.BIT\[2\]\.genblk1\.STORAGE
*194 WORD\[1\]\.W\.BYTE\[0\]\.B\.BIT\[3\]\.OBUF0
*195 WORD\[1\]\.W\.BYTE\[0\]\.B\.BIT\[3\]\.genblk1\.STORAGE
*196 WORD\[1\]\.W\.BYTE\[0\]\.B\.BIT\[4\]\.OBUF0
*197 WORD\[1\]\.W\.BYTE\[0\]\.B\.BIT\[4\]\.genblk1\.STORAGE
*198 WORD\[1\]\.W\.BYTE\[0\]\.B\.BIT\[5\]\.OBUF0
*199 WORD\[1\]\.W\.BYTE\[0\]\.B\.BIT\[5\]\.genblk1\.STORAGE
*200 WORD\[1\]\.W\.BYTE\[0\]\.B\.BIT\[6\]\.OBUF0
*201 WORD\[1\]\.W\.BYTE\[0\]\.B\.BIT\[6\]\.genblk1\.STORAGE
*202 WORD\[1\]\.W\.BYTE\[0\]\.B\.BIT\[7\]\.OBUF0
*203 WORD\[1\]\.W\.BYTE\[0\]\.B\.BIT\[7\]\.genblk1\.STORAGE
*204 WORD\[1\]\.W\.BYTE\[0\]\.B\.CGAND
*205 WORD\[1\]\.W\.BYTE\[0\]\.B\.DIODE_CLK
*206 WORD\[1\]\.W\.BYTE\[0\]\.B\.SEL0INV
*207 WORD\[1\]\.W\.BYTE\[0\]\.B\.genblk1\.CG
*208 WORD\[1\]\.W\.BYTE\[0\]\.B\.genblk1\.CLKINV
*209 WORD\[1\]\.W\.CLKBUF
*210 WORD\[1\]\.W\.SEL0BUF
*211 WORD\[2\]\.W\.BYTE\[0\]\.B\.BIT\[0\]\.OBUF0
*212 WORD\[2\]\.W\.BYTE\[0\]\.B\.BIT\[0\]\.genblk1\.STORAGE
*213 WORD\[2\]\.W\.BYTE\[0\]\.B\.BIT\[1\]\.OBUF0
*214 WORD\[2\]\.W\.BYTE\[0\]\.B\.BIT\[1\]\.genblk1\.STORAGE
*215 WORD\[2\]\.W\.BYTE\[0\]\.B\.BIT\[2\]\.OBUF0
*216 WORD\[2\]\.W\.BYTE\[0\]\.B\.BIT\[2\]\.genblk1\.STORAGE
*217 WORD\[2\]\.W\.BYTE\[0\]\.B\.BIT\[3\]\.OBUF0
*218 WORD\[2\]\.W\.BYTE\[0\]\.B\.BIT\[3\]\.genblk1\.STORAGE
*219 WORD\[2\]\.W\.BYTE\[0\]\.B\.BIT\[4\]\.OBUF0
*220 WORD\[2\]\.W\.BYTE\[0\]\.B\.BIT\[4\]\.genblk1\.STORAGE
*221 WORD\[2\]\.W\.BYTE\[0\]\.B\.BIT\[5\]\.OBUF0
*222 WORD\[2\]\.W\.BYTE\[0\]\.B\.BIT\[5\]\.genblk1\.STORAGE
*223 WORD\[2\]\.W\.BYTE\[0\]\.B\.BIT\[6\]\.OBUF0
*224 WORD\[2\]\.W\.BYTE\[0\]\.B\.BIT\[6\]\.genblk1\.STORAGE
*225 WORD\[2\]\.W\.BYTE\[0\]\.B\.BIT\[7\]\.OBUF0
*226 WORD\[2\]\.W\.BYTE\[0\]\.B\.BIT\[7\]\.genblk1\.STORAGE
*227 WORD\[2\]\.W\.BYTE\[0\]\.B\.CGAND
*228 WORD\[2\]\.W\.BYTE\[0\]\.B\.DIODE_CLK
*229 WORD\[2\]\.W\.BYTE\[0\]\.B\.SEL0INV
*230 WORD\[2\]\.W\.BYTE\[0\]\.B\.genblk1\.CG
*231 WORD\[2\]\.W\.BYTE\[0\]\.B\.genblk1\.CLKINV
*232 WORD\[2\]\.W\.CLKBUF
*233 WORD\[2\]\.W\.SEL0BUF
*234 WORD\[3\]\.W\.BYTE\[0\]\.B\.BIT\[0\]\.OBUF0
*235 WORD\[3\]\.W\.BYTE\[0\]\.B\.BIT\[0\]\.genblk1\.STORAGE
*236 WORD\[3\]\.W\.BYTE\[0\]\.B\.BIT\[1\]\.OBUF0
*237 WORD\[3\]\.W\.BYTE\[0\]\.B\.BIT\[1\]\.genblk1\.STORAGE
*238 WORD\[3\]\.W\.BYTE\[0\]\.B\.BIT\[2\]\.OBUF0
*239 WORD\[3\]\.W\.BYTE\[0\]\.B\.BIT\[2\]\.genblk1\.STORAGE
*240 WORD\[3\]\.W\.BYTE\[0\]\.B\.BIT\[3\]\.OBUF0
*241 WORD\[3\]\.W\.BYTE\[0\]\.B\.BIT\[3\]\.genblk1\.STORAGE
*242 WORD\[3\]\.W\.BYTE\[0\]\.B\.BIT\[4\]\.OBUF0
*243 WORD\[3\]\.W\.BYTE\[0\]\.B\.BIT\[4\]\.genblk1\.STORAGE
*244 WORD\[3\]\.W\.BYTE\[0\]\.B\.BIT\[5\]\.OBUF0
*245 WORD\[3\]\.W\.BYTE\[0\]\.B\.BIT\[5\]\.genblk1\.STORAGE
*246 WORD\[3\]\.W\.BYTE\[0\]\.B\.BIT\[6\]\.OBUF0
*247 WORD\[3\]\.W\.BYTE\[0\]\.B\.BIT\[6\]\.genblk1\.STORAGE
*248 WORD\[3\]\.W\.BYTE\[0\]\.B\.BIT\[7\]\.OBUF0
*249 WORD\[3\]\.W\.BYTE\[0\]\.B\.BIT\[7\]\.genblk1\.STORAGE
*250 WORD\[3\]\.W\.BYTE\[0\]\.B\.CGAND
*251 WORD\[3\]\.W\.BYTE\[0\]\.B\.DIODE_CLK
*252 WORD\[3\]\.W\.BYTE\[0\]\.B\.SEL0INV
*253 WORD\[3\]\.W\.BYTE\[0\]\.B\.genblk1\.CG
*254 WORD\[3\]\.W\.BYTE\[0\]\.B\.genblk1\.CLKINV
*255 WORD\[3\]\.W\.CLKBUF
*256 WORD\[3\]\.W\.SEL0BUF
*257 WORD\[4\]\.W\.BYTE\[0\]\.B\.BIT\[0\]\.OBUF0
*258 WORD\[4\]\.W\.BYTE\[0\]\.B\.BIT\[0\]\.genblk1\.STORAGE
*259 WORD\[4\]\.W\.BYTE\[0\]\.B\.BIT\[1\]\.OBUF0
*260 WORD\[4\]\.W\.BYTE\[0\]\.B\.BIT\[1\]\.genblk1\.STORAGE
*261 WORD\[4\]\.W\.BYTE\[0\]\.B\.BIT\[2\]\.OBUF0
*262 WORD\[4\]\.W\.BYTE\[0\]\.B\.BIT\[2\]\.genblk1\.STORAGE
*263 WORD\[4\]\.W\.BYTE\[0\]\.B\.BIT\[3\]\.OBUF0
*264 WORD\[4\]\.W\.BYTE\[0\]\.B\.BIT\[3\]\.genblk1\.STORAGE
*265 WORD\[4\]\.W\.BYTE\[0\]\.B\.BIT\[4\]\.OBUF0
*266 WORD\[4\]\.W\.BYTE\[0\]\.B\.BIT\[4\]\.genblk1\.STORAGE
*267 WORD\[4\]\.W\.BYTE\[0\]\.B\.BIT\[5\]\.OBUF0
*268 WORD\[4\]\.W\.BYTE\[0\]\.B\.BIT\[5\]\.genblk1\.STORAGE
*269 WORD\[4\]\.W\.BYTE\[0\]\.B\.BIT\[6\]\.OBUF0
*270 WORD\[4\]\.W\.BYTE\[0\]\.B\.BIT\[6\]\.genblk1\.STORAGE
*271 WORD\[4\]\.W\.BYTE\[0\]\.B\.BIT\[7\]\.OBUF0
*272 WORD\[4\]\.W\.BYTE\[0\]\.B\.BIT\[7\]\.genblk1\.STORAGE
*273 WORD\[4\]\.W\.BYTE\[0\]\.B\.CGAND
*274 WORD\[4\]\.W\.BYTE\[0\]\.B\.DIODE_CLK
*275 WORD\[4\]\.W\.BYTE\[0\]\.B\.SEL0INV
*276 WORD\[4\]\.W\.BYTE\[0\]\.B\.genblk1\.CG
*277 WORD\[4\]\.W\.BYTE\[0\]\.B\.genblk1\.CLKINV
*278 WORD\[4\]\.W\.CLKBUF
*279 WORD\[4\]\.W\.SEL0BUF
*280 WORD\[5\]\.W\.BYTE\[0\]\.B\.BIT\[0\]\.OBUF0
*281 WORD\[5\]\.W\.BYTE\[0\]\.B\.BIT\[0\]\.genblk1\.STORAGE
*282 WORD\[5\]\.W\.BYTE\[0\]\.B\.BIT\[1\]\.OBUF0
*283 WORD\[5\]\.W\.BYTE\[0\]\.B\.BIT\[1\]\.genblk1\.STORAGE
*284 WORD\[5\]\.W\.BYTE\[0\]\.B\.BIT\[2\]\.OBUF0
*285 WORD\[5\]\.W\.BYTE\[0\]\.B\.BIT\[2\]\.genblk1\.STORAGE
*286 WORD\[5\]\.W\.BYTE\[0\]\.B\.BIT\[3\]\.OBUF0
*287 WORD\[5\]\.W\.BYTE\[0\]\.B\.BIT\[3\]\.genblk1\.STORAGE
*288 WORD\[5\]\.W\.BYTE\[0\]\.B\.BIT\[4\]\.OBUF0
*289 WORD\[5\]\.W\.BYTE\[0\]\.B\.BIT\[4\]\.genblk1\.STORAGE
*290 WORD\[5\]\.W\.BYTE\[0\]\.B\.BIT\[5\]\.OBUF0
*291 WORD\[5\]\.W\.BYTE\[0\]\.B\.BIT\[5\]\.genblk1\.STORAGE
*292 WORD\[5\]\.W\.BYTE\[0\]\.B\.BIT\[6\]\.OBUF0
*293 WORD\[5\]\.W\.BYTE\[0\]\.B\.BIT\[6\]\.genblk1\.STORAGE
*294 WORD\[5\]\.W\.BYTE\[0\]\.B\.BIT\[7\]\.OBUF0
*295 WORD\[5\]\.W\.BYTE\[0\]\.B\.BIT\[7\]\.genblk1\.STORAGE
*296 WORD\[5\]\.W\.BYTE\[0\]\.B\.CGAND
*297 WORD\[5\]\.W\.BYTE\[0\]\.B\.DIODE_CLK
*298 WORD\[5\]\.W\.BYTE\[0\]\.B\.SEL0INV
*299 WORD\[5\]\.W\.BYTE\[0\]\.B\.genblk1\.CG
*300 WORD\[5\]\.W\.BYTE\[0\]\.B\.genblk1\.CLKINV
*301 WORD\[5\]\.W\.CLKBUF
*302 WORD\[5\]\.W\.SEL0BUF
*303 WORD\[6\]\.W\.BYTE\[0\]\.B\.BIT\[0\]\.OBUF0
*304 WORD\[6\]\.W\.BYTE\[0\]\.B\.BIT\[0\]\.genblk1\.STORAGE
*305 WORD\[6\]\.W\.BYTE\[0\]\.B\.BIT\[1\]\.OBUF0
*306 WORD\[6\]\.W\.BYTE\[0\]\.B\.BIT\[1\]\.genblk1\.STORAGE
*307 WORD\[6\]\.W\.BYTE\[0\]\.B\.BIT\[2\]\.OBUF0
*308 WORD\[6\]\.W\.BYTE\[0\]\.B\.BIT\[2\]\.genblk1\.STORAGE
*309 WORD\[6\]\.W\.BYTE\[0\]\.B\.BIT\[3\]\.OBUF0
*310 WORD\[6\]\.W\.BYTE\[0\]\.B\.BIT\[3\]\.genblk1\.STORAGE
*311 WORD\[6\]\.W\.BYTE\[0\]\.B\.BIT\[4\]\.OBUF0
*312 WORD\[6\]\.W\.BYTE\[0\]\.B\.BIT\[4\]\.genblk1\.STORAGE
*313 WORD\[6\]\.W\.BYTE\[0\]\.B\.BIT\[5\]\.OBUF0
*314 WORD\[6\]\.W\.BYTE\[0\]\.B\.BIT\[5\]\.genblk1\.STORAGE
*315 WORD\[6\]\.W\.BYTE\[0\]\.B\.BIT\[6\]\.OBUF0
*316 WORD\[6\]\.W\.BYTE\[0\]\.B\.BIT\[6\]\.genblk1\.STORAGE
*317 WORD\[6\]\.W\.BYTE\[0\]\.B\.BIT\[7\]\.OBUF0
*318 WORD\[6\]\.W\.BYTE\[0\]\.B\.BIT\[7\]\.genblk1\.STORAGE
*319 WORD\[6\]\.W\.BYTE\[0\]\.B\.CGAND
*320 WORD\[6\]\.W\.BYTE\[0\]\.B\.DIODE_CLK
*321 WORD\[6\]\.W\.BYTE\[0\]\.B\.SEL0INV
*322 WORD\[6\]\.W\.BYTE\[0\]\.B\.genblk1\.CG
*323 WORD\[6\]\.W\.BYTE\[0\]\.B\.genblk1\.CLKINV
*324 WORD\[6\]\.W\.CLKBUF
*325 WORD\[6\]\.W\.SEL0BUF
*326 WORD\[7\]\.W\.BYTE\[0\]\.B\.BIT\[0\]\.OBUF0
*327 WORD\[7\]\.W\.BYTE\[0\]\.B\.BIT\[0\]\.genblk1\.STORAGE
*328 WORD\[7\]\.W\.BYTE\[0\]\.B\.BIT\[1\]\.OBUF0
*329 WORD\[7\]\.W\.BYTE\[0\]\.B\.BIT\[1\]\.genblk1\.STORAGE
*330 WORD\[7\]\.W\.BYTE\[0\]\.B\.BIT\[2\]\.OBUF0
*331 WORD\[7\]\.W\.BYTE\[0\]\.B\.BIT\[2\]\.genblk1\.STORAGE
*332 WORD\[7\]\.W\.BYTE\[0\]\.B\.BIT\[3\]\.OBUF0
*333 WORD\[7\]\.W\.BYTE\[0\]\.B\.BIT\[3\]\.genblk1\.STORAGE
*334 WORD\[7\]\.W\.BYTE\[0\]\.B\.BIT\[4\]\.OBUF0
*335 WORD\[7\]\.W\.BYTE\[0\]\.B\.BIT\[4\]\.genblk1\.STORAGE
*336 WORD\[7\]\.W\.BYTE\[0\]\.B\.BIT\[5\]\.OBUF0
*337 WORD\[7\]\.W\.BYTE\[0\]\.B\.BIT\[5\]\.genblk1\.STORAGE
*338 WORD\[7\]\.W\.BYTE\[0\]\.B\.BIT\[6\]\.OBUF0
*339 WORD\[7\]\.W\.BYTE\[0\]\.B\.BIT\[6\]\.genblk1\.STORAGE
*340 WORD\[7\]\.W\.BYTE\[0\]\.B\.BIT\[7\]\.OBUF0
*341 WORD\[7\]\.W\.BYTE\[0\]\.B\.BIT\[7\]\.genblk1\.STORAGE
*342 WORD\[7\]\.W\.BYTE\[0\]\.B\.CGAND
*343 WORD\[7\]\.W\.BYTE\[0\]\.B\.DIODE_CLK
*344 WORD\[7\]\.W\.BYTE\[0\]\.B\.SEL0INV
*345 WORD\[7\]\.W\.BYTE\[0\]\.B\.genblk1\.CG
*346 WORD\[7\]\.W\.BYTE\[0\]\.B\.genblk1\.CLKINV
*347 WORD\[7\]\.W\.CLKBUF
*348 WORD\[7\]\.W\.SEL0BUF
*349 fill_0_0
*350 fill_1_0
*351 fill_1_1
*352 fill_2_0
*353 fill_2_1
*354 fill_2_2
*355 fill_2_3
*356 fill_2_4
*357 fill_3_0
*358 fill_3_1
*359 fill_3_2
*360 fill_3_3
*361 fill_4_0
*362 fill_4_1
*363 fill_4_2
*364 fill_4_3
*365 fill_4_4
*366 fill_4_5
*367 fill_5_0
*368 fill_5_1
*369 fill_5_2
*370 fill_5_3
*371 fill_6_0
*372 fill_6_1
*373 fill_6_2
*374 fill_6_3
*375 fill_6_4
*376 fill_7_0
*377 fill_7_1
*378 fill_7_2
*379 fill_7_3
*380 fill_7_4
*381 tap_0_0
*382 tap_0_1
*383 tap_0_2
*384 tap_0_3
*385 tap_0_4
*386 tap_0_5
*387 tap_0_6
*388 tap_0_7
*389 tap_0_8
*390 tap_1_0
*391 tap_1_1
*392 tap_1_2
*393 tap_1_3
*394 tap_1_4
*395 tap_1_5
*396 tap_1_6
*397 tap_1_7
*398 tap_1_8
*399 tap_1_9
*400 tap_2_0
*401 tap_2_1
*402 tap_2_2
*403 tap_2_3
*404 tap_2_4
*405 tap_2_5
*406 tap_2_6
*407 tap_2_7
*408 tap_2_8
*409 tap_3_0
*410 tap_3_1
*411 tap_3_2
*412 tap_3_3
*413 tap_3_4
*414 tap_3_5
*415 tap_3_6
*416 tap_3_7
*417 tap_3_8
*418 tap_3_9
*419 tap_4_0
*420 tap_4_1
*421 tap_4_2
*422 tap_4_3
*423 tap_4_4
*424 tap_4_5
*425 tap_4_6
*426 tap_4_7
*427 tap_4_8
*428 tap_5_0
*429 tap_5_1
*430 tap_5_2
*431 tap_5_3
*432 tap_5_4
*433 tap_5_5
*434 tap_5_6
*435 tap_5_7
*436 tap_5_8
*437 tap_5_9
*438 tap_6_0
*439 tap_6_1
*440 tap_6_2
*441 tap_6_3
*442 tap_6_4
*443 tap_6_5
*444 tap_6_6
*445 tap_6_7
*446 tap_6_8
*447 tap_7_0
*448 tap_7_1
*449 tap_7_2
*450 tap_7_3
*451 tap_7_4
*452 tap_7_5
*453 tap_7_6
*454 tap_7_7
*455 tap_7_8
*456 tap_7_9

*PORTS
A0[0] I
A0[1] I
A0[2] I
CLK I
Di0[0] I
Di0[1] I
Di0[2] I
Di0[3] I
Di0[4] I
Di0[5] I
Di0[6] I
Di0[7] I
Do0[0] O
Do0[1] O
Do0[2] O
Do0[3] O
Do0[4] O
Do0[5] O
Do0[6] O
Do0[7] O
EN0 I
WE0 I

*D_NET *1 0.00123661
*CONN
*P A0[0] I
*I *152:A I *D sky130_fd_sc_hd__clkbuf_2
*CAP
1 A0[0] 0.00029008
2 *152:A 0.00029008
3 *152:A *153:A 0.000109728
4 *152:A *155:B 8.82167e-05
5 *152:A *155:D_N 4.01768e-05
6 *152:A *163:A 0.000229744
7 *152:A *26:6 0.000188586
*RES
1 A0[0] *152:A 23.8333 
*END

*D_NET *2 0.000848561
*CONN
*P A0[1] I
*I *153:A I *D sky130_fd_sc_hd__clkbuf_2
*CAP
1 A0[1] 0.000213052
2 *153:A 0.000213052
3 *153:A *154:A 0.000155807
4 *153:A *163:A 9.97744e-05
5 *153:A *27:6 5.71472e-05
6 *152:A *153:A 0.000109728
*RES
1 A0[1] *153:A 21.4934 
*END

*D_NET *3 0.000788627
*CONN
*P A0[2] I
*I *154:A I *D sky130_fd_sc_hd__clkbuf_2
*CAP
1 A0[2] 0.000286543
2 *154:A 0.000286543
3 *154:A *151:A 1.91362e-05
4 *154:A *163:A 4.05973e-05
5 *154:A *26:52 0
6 *153:A *154:A 0.000155807
*RES
1 A0[2] *154:A 22.2255 
*END

*D_NET *4 0.00294249
*CONN
*P CLK I
*I *151:A I *D sky130_fd_sc_hd__clkbuf_2
*CAP
1 CLK 0.000600839
2 *151:A 0.000600839
3 *151:A *155:D_N 3.34366e-05
4 *151:A *156:A_N 2.14658e-05
5 *151:A *164:A 8.2904e-05
6 *151:A *210:A 0.000227539
7 *151:A *25:8 5.52302e-05
8 *151:A *28:19 0.000198698
9 *151:A *28:47 0.00015134
10 *151:A *28:58 0.000195562
11 *151:A *28:71 0.000136957
12 *151:A *29:10 0.000236814
13 *151:A *29:12 0.000117196
14 *151:A *29:43 0.00013966
15 *151:A *29:58 0.000124876
16 *154:A *151:A 1.91362e-05
*RES
1 CLK *151:A 29.2472 
*END

*D_NET *5 0.00370073
*CONN
*P Di0[0] I
*I *327:D I *D sky130_fd_sc_hd__dlxtp_1
*I *304:D I *D sky130_fd_sc_hd__dlxtp_1
*I *281:D I *D sky130_fd_sc_hd__dlxtp_1
*I *258:D I *D sky130_fd_sc_hd__dlxtp_1
*I *235:D I *D sky130_fd_sc_hd__dlxtp_1
*I *212:D I *D sky130_fd_sc_hd__dlxtp_1
*I *189:D I *D sky130_fd_sc_hd__dlxtp_1
*I *166:D I *D sky130_fd_sc_hd__dlxtp_1
*CAP
1 Di0[0] 0.000359478
2 *327:D 0.000182723
3 *304:D 2.36895e-05
4 *281:D 0
5 *258:D 2.36895e-05
6 *235:D 0
7 *212:D 2.61224e-05
8 *189:D 0
9 *166:D 2.1025e-05
10 *5:77 0.000340365
11 *5:68 0.000316675
12 *5:57 0.000340365
13 *5:48 0.000316675
14 *5:37 0.000342797
15 *5:28 0.000327917
16 *5:17 0.000574468
17 *166:D *166:GATE 5.71472e-05
18 *212:D *212:GATE 2.89016e-05
19 *258:D *258:GATE 5.52238e-05
20 *304:D *304:GATE 5.52238e-05
21 *5:17 *165:Z 4.7091e-05
22 *5:17 *166:GATE 0.000261157
*RES
1 Di0[0] *5:17 11.375 
2 *5:17 *166:D 9.83571 
3 *5:17 *5:28 7.35714 
4 *5:28 *189:D 13.8 
5 *5:28 *5:37 2.25 
6 *5:37 *212:D 14.3357 
7 *5:37 *5:48 2.85714 
8 *5:48 *235:D 13.8 
9 *5:48 *5:57 2.25 
10 *5:57 *258:D 14.3357 
11 *5:57 *5:68 2.85714 
12 *5:68 *281:D 13.8 
13 *5:68 *5:77 2.25 
14 *5:77 *304:D 14.3357 
15 *5:77 *327:D 16.6571 
*END

*D_NET *6 0.00557239
*CONN
*P Di0[1] I
*I *191:D I *D sky130_fd_sc_hd__dlxtp_1
*I *329:D I *D sky130_fd_sc_hd__dlxtp_1
*I *306:D I *D sky130_fd_sc_hd__dlxtp_1
*I *283:D I *D sky130_fd_sc_hd__dlxtp_1
*I *260:D I *D sky130_fd_sc_hd__dlxtp_1
*I *237:D I *D sky130_fd_sc_hd__dlxtp_1
*I *214:D I *D sky130_fd_sc_hd__dlxtp_1
*I *168:D I *D sky130_fd_sc_hd__dlxtp_1
*CAP
1 Di0[1] 0.000518593
2 *191:D 9.52321e-05
3 *329:D 0.000212807
4 *306:D 4.63401e-05
5 *283:D 1.80162e-05
6 *260:D 4.63401e-05
7 *237:D 1.1326e-05
8 *214:D 5.15058e-05
9 *168:D 0.00015096
10 *6:74 0.000400611
11 *6:63 0.000356704
12 *6:50 0.000373463
13 *6:39 0.000330368
14 *6:26 0.000438446
15 *6:13 0.000416984
16 *6:9 0.000682052
17 *168:D *165:TE_B 8.07313e-05
18 *168:D *41:20 5.41494e-05
19 *168:D *55:42 9.25014e-06
20 *191:D *188:TE_B 0.000181265
21 *191:D *190:A 0
22 *191:D *191:GATE 0
23 *191:D *55:42 1.87104e-05
24 *214:D *69:130 0.00014285
25 *237:D *234:TE_B 5.52238e-05
26 *237:D *83:36 2.27416e-05
27 *260:D *257:TE_B 9.90367e-05
28 *260:D *97:20 2.72859e-05
29 *283:D *280:TE_B 2.89016e-05
30 *283:D *111:28 1.92789e-05
31 *306:D *303:TE_B 9.90367e-05
32 *306:D *125:20 2.72859e-05
33 *329:D *326:TE_B 5.52238e-05
34 *329:D *139:42 1.92789e-05
35 *6:9 *167:Z 9.91086e-05
36 *6:9 *188:TE_B 5.37061e-05
37 *6:9 *190:A 9.91033e-05
38 *6:9 *190:Z 5.33334e-05
39 *6:9 *193:GATE 6.05161e-06
40 *6:9 *7:36 0
41 *6:9 *65:48 5.3902e-05
42 *6:26 *55:42 0.000117189
*RES
1 Di0[1] *6:9 11.8036 
2 *6:9 *6:13 5.44643 
3 *6:13 *168:D 17.1036 
4 *6:13 *6:26 3.16071 
5 *6:26 *214:D 15.1571 
6 *6:26 *6:39 3.39286 
7 *6:39 *237:D 14.3357 
8 *6:39 *6:50 1.94643 
9 *6:50 *260:D 15.175 
10 *6:50 *6:63 3.16071 
11 *6:63 *283:D 14.3357 
12 *6:63 *6:74 1.94643 
13 *6:74 *306:D 15.175 
14 *6:74 *329:D 17.4964 
15 *6:9 *191:D 12.0902 
*END

*D_NET *7 0.0050406
*CONN
*P Di0[2] I
*I *331:D I *D sky130_fd_sc_hd__dlxtp_1
*I *308:D I *D sky130_fd_sc_hd__dlxtp_1
*I *285:D I *D sky130_fd_sc_hd__dlxtp_1
*I *262:D I *D sky130_fd_sc_hd__dlxtp_1
*I *239:D I *D sky130_fd_sc_hd__dlxtp_1
*I *216:D I *D sky130_fd_sc_hd__dlxtp_1
*I *193:D I *D sky130_fd_sc_hd__dlxtp_1
*I *170:D I *D sky130_fd_sc_hd__dlxtp_1
*CAP
1 Di0[2] 0.000599248
2 *331:D 0.000172368
3 *308:D 1.55834e-05
4 *285:D 0
5 *262:D 1.55834e-05
6 *239:D 0
7 *216:D 2.36895e-05
8 *193:D 0
9 *170:D 1.29188e-05
10 *7:85 0.000326064
11 *7:76 0.000310481
12 *7:65 0.000326064
13 *7:56 0.000304965
14 *7:45 0.00035217
15 *7:36 0.000347328
16 *7:25 0.000797867
17 *170:D *41:16 1.92789e-05
18 *170:D *51:80 5.71472e-05
19 *216:D *69:108 5.52238e-05
20 *262:D *97:16 1.92789e-05
21 *262:D *107:80 5.52238e-05
22 *308:D *125:16 1.92789e-05
23 *308:D *135:94 5.52238e-05
24 *331:D Do0[1] 0
25 *331:D *14:14 0
26 *7:25 *169:Z 4.46186e-06
27 *7:25 *170:GATE 0
28 *7:25 *172:D 5.4887e-05
29 *7:25 *41:16 0.000542207
30 *7:25 *51:80 0.000554053
31 *7:36 *167:Z 0
32 *7:45 *14:22 0
33 *7:56 *14:20 0
34 *7:56 *14:22 0
35 *7:65 *14:18 0
36 *7:65 *14:20 0
37 *7:76 *14:16 0
38 *7:76 *14:18 0
39 *7:85 *14:14 0
40 *7:85 *14:16 0
41 *6:9 *7:36 0
*RES
1 Di0[2] *7:25 18.8393 
2 *7:25 *170:D 9.83571 
3 *7:25 *7:36 7.35714 
4 *7:36 *193:D 13.8 
5 *7:36 *7:45 2.25 
6 *7:45 *216:D 14.3357 
7 *7:45 *7:56 2.85714 
8 *7:56 *239:D 13.8 
9 *7:56 *7:65 2.25 
10 *7:65 *262:D 14.3357 
11 *7:65 *7:76 2.85714 
12 *7:76 *285:D 13.8 
13 *7:76 *7:85 2.25 
14 *7:85 *308:D 14.3357 
15 *7:85 *331:D 16.6571 
*END

*D_NET *8 0.00577246
*CONN
*P Di0[3] I
*I *195:D I *D sky130_fd_sc_hd__dlxtp_1
*I *333:D I *D sky130_fd_sc_hd__dlxtp_1
*I *310:D I *D sky130_fd_sc_hd__dlxtp_1
*I *287:D I *D sky130_fd_sc_hd__dlxtp_1
*I *264:D I *D sky130_fd_sc_hd__dlxtp_1
*I *241:D I *D sky130_fd_sc_hd__dlxtp_1
*I *218:D I *D sky130_fd_sc_hd__dlxtp_1
*I *172:D I *D sky130_fd_sc_hd__dlxtp_1
*CAP
1 Di0[3] 0.000936195
2 *195:D 0
3 *333:D 0.00015399
4 *310:D 1.55834e-05
5 *287:D 0
6 *264:D 1.55834e-05
7 *241:D 0
8 *218:D 2.36895e-05
9 *172:D 0.000158649
10 *8:70 0.000304609
11 *8:61 0.000313684
12 *8:50 0.000329286
13 *8:41 0.000308197
14 *8:30 0.000340676
15 *8:26 0.000268984
16 *8:9 0.00121998
17 *172:D *169:Z 0
18 *172:D *41:14 8.90199e-05
19 *172:D *51:65 0.000232399
20 *218:D *69:90 5.52238e-05
21 *264:D *97:14 1.92789e-05
22 *264:D *107:65 5.52238e-05
23 *310:D *125:14 1.92789e-05
24 *310:D *135:79 5.52238e-05
25 *333:D Do0[2] 6.04873e-05
26 *333:D *15:8 0
27 *333:D *15:10 0
28 *8:9 *194:A 0.00010096
29 *8:9 *196:A 9.90367e-05
30 *8:9 *9:19 2.07158e-05
31 *8:9 *9:38 7.15846e-05
32 *8:9 *65:32 0.000184047
33 *8:9 *65:34 6.05148e-05
34 *8:26 *194:A 0
35 *8:26 *65:34 0.000186669
36 *8:30 *195:GATE 1.87955e-05
37 *8:30 *15:22 0
38 *8:41 *15:18 0
39 *8:41 *15:20 0
40 *8:50 *15:18 0
41 *8:61 *15:10 0
42 *8:61 *15:16 0
43 *8:61 *15:18 0
44 *8:70 *15:10 0
45 *7:25 *172:D 5.4887e-05
*RES
1 Di0[3] *8:9 17.5536 
2 *8:9 *172:D 22.425 
3 *8:9 *8:26 2.80357 
4 *8:26 *8:30 6.75 
5 *8:30 *218:D 14.3357 
6 *8:30 *8:41 2.85714 
7 *8:41 *241:D 13.8 
8 *8:41 *8:50 2.25 
9 *8:50 *264:D 14.3357 
10 *8:50 *8:61 2.85714 
11 *8:61 *287:D 13.8 
12 *8:61 *8:70 2.25 
13 *8:70 *310:D 14.3357 
14 *8:70 *333:D 16.6571 
15 *8:26 *195:D 9.3 
*END

*D_NET *9 0.00699035
*CONN
*P Di0[4] I
*I *197:D I *D sky130_fd_sc_hd__dlxtp_1
*I *335:D I *D sky130_fd_sc_hd__dlxtp_1
*I *312:D I *D sky130_fd_sc_hd__dlxtp_1
*I *289:D I *D sky130_fd_sc_hd__dlxtp_1
*I *266:D I *D sky130_fd_sc_hd__dlxtp_1
*I *243:D I *D sky130_fd_sc_hd__dlxtp_1
*I *220:D I *D sky130_fd_sc_hd__dlxtp_1
*I *174:D I *D sky130_fd_sc_hd__dlxtp_1
*CAP
1 Di0[4] 0.000958775
2 *197:D 0
3 *335:D 0.000167702
4 *312:D 1.55834e-05
5 *289:D 0
6 *266:D 1.55834e-05
7 *243:D 0
8 *220:D 2.36895e-05
9 *174:D 0.000162295
10 *9:82 0.000329244
11 *9:73 0.000328476
12 *9:62 0.000337005
13 *9:53 0.000312047
14 *9:42 0.000346051
15 *9:38 0.000327858
16 *9:19 0.00129971
17 *174:D *41:12 5.76121e-05
18 *174:D *51:50 0.000144773
19 *220:D *69:72 5.52238e-05
20 *266:D *97:12 1.92789e-05
21 *266:D *107:50 5.52238e-05
22 *312:D *125:12 1.92789e-05
23 *312:D *135:64 5.52238e-05
24 *335:D Do0[3] 5.68412e-05
25 *335:D *16:8 0
26 *335:D *16:10 0
27 *9:19 *173:Z 0
28 *9:19 *175:Z 1.8038e-05
29 *9:19 *10:15 0.000870027
30 *9:19 *41:12 0.000357054
31 *9:19 *51:50 0.00036192
32 *9:38 *171:Z 0
33 *9:38 *16:22 0
34 *9:38 *65:32 0.000184745
35 *9:42 *197:GATE 1.87955e-05
36 *9:42 *16:22 0
37 *9:53 *16:18 0
38 *9:53 *16:20 0
39 *9:62 *16:18 0
40 *9:73 *16:10 0
41 *9:73 *16:16 0
42 *9:73 *16:18 0
43 *9:82 *16:10 0
44 *8:9 *9:19 2.07158e-05
45 *8:9 *9:38 7.15846e-05
*RES
1 Di0[4] *9:19 22.4735 
2 *9:19 *174:D 16.8357 
3 *9:19 *9:38 8.51786 
4 *9:38 *9:42 6.75 
5 *9:42 *220:D 14.3357 
6 *9:42 *9:53 2.85714 
7 *9:53 *243:D 13.8 
8 *9:53 *9:62 2.25 
9 *9:62 *266:D 14.3357 
10 *9:62 *9:73 2.85714 
11 *9:73 *289:D 13.8 
12 *9:73 *9:82 2.25 
13 *9:82 *312:D 14.3357 
14 *9:82 *335:D 16.6571 
15 *9:38 *197:D 9.3 
*END

*D_NET *10 0.00742055
*CONN
*P Di0[5] I
*I *337:D I *D sky130_fd_sc_hd__dlxtp_1
*I *314:D I *D sky130_fd_sc_hd__dlxtp_1
*I *291:D I *D sky130_fd_sc_hd__dlxtp_1
*I *268:D I *D sky130_fd_sc_hd__dlxtp_1
*I *245:D I *D sky130_fd_sc_hd__dlxtp_1
*I *222:D I *D sky130_fd_sc_hd__dlxtp_1
*I *199:D I *D sky130_fd_sc_hd__dlxtp_1
*I *176:D I *D sky130_fd_sc_hd__dlxtp_1
*CAP
1 Di0[5] 0.00129127
2 *337:D 0.000220704
3 *314:D 0
4 *291:D 1.55603e-05
5 *268:D 0
6 *245:D 2.56425e-05
7 *222:D 0
8 *199:D 2.36012e-05
9 *176:D 4.39974e-05
10 *10:85 0.000363627
11 *10:74 0.000360243
12 *10:65 0.000344692
13 *10:50 0.000368295
14 *10:41 0.000371282
15 *10:26 0.000360794
16 *10:15 0.0015009
17 *199:D *199:GATE 5.7661e-06
18 *199:D *55:26 2.87076e-05
19 *199:D *65:30 1.94386e-05
20 *245:D *83:28 1.94386e-05
21 *245:D *93:24 2.87076e-05
22 *291:D *111:20 1.92905e-05
23 *291:D *121:16 5.52302e-05
24 *337:D *17:8 0
25 *337:D *17:10 0
26 *337:D *17:12 0
27 *337:D *139:30 1.92905e-05
28 *337:D *149:24 5.52302e-05
29 *10:15 *180:D 4.26759e-05
30 *10:15 *11:19 0.000678929
31 *10:15 *41:10 0.000152412
32 *10:15 *51:35 0.000134807
33 *10:26 *173:Z 0
34 *10:26 *17:20 0
35 *10:41 *17:20 0
36 *10:50 *17:16 0
37 *10:50 *17:18 0
38 *10:65 *17:16 0
39 *10:74 *17:12 0
40 *10:74 *17:14 0
41 *10:74 *17:16 0
42 *10:85 *17:12 0
43 *9:19 *10:15 0.000870027
*RES
1 Di0[5] *10:15 11.816 
2 *10:15 *176:D 14.3804 
3 *10:15 *10:26 2.40179 
4 *10:26 *199:D 14.5946 
5 *10:26 *10:41 2.25 
6 *10:41 *222:D 13.8 
7 *10:41 *10:50 2.85714 
8 *10:50 *245:D 14.5946 
9 *10:50 *10:65 2.25 
10 *10:65 *268:D 13.8 
11 *10:65 *10:74 2.85714 
12 *10:74 *291:D 14.3357 
13 *10:74 *10:85 2.25 
14 *10:85 *314:D 13.8 
15 *10:85 *337:D 17.1929 
*END

*D_NET *11 0.00743061
*CONN
*P Di0[6] I
*I *339:D I *D sky130_fd_sc_hd__dlxtp_1
*I *316:D I *D sky130_fd_sc_hd__dlxtp_1
*I *293:D I *D sky130_fd_sc_hd__dlxtp_1
*I *270:D I *D sky130_fd_sc_hd__dlxtp_1
*I *247:D I *D sky130_fd_sc_hd__dlxtp_1
*I *224:D I *D sky130_fd_sc_hd__dlxtp_1
*I *201:D I *D sky130_fd_sc_hd__dlxtp_1
*I *178:D I *D sky130_fd_sc_hd__dlxtp_1
*CAP
1 Di0[6] 0.00169584
2 *339:D 0.000197652
3 *316:D 4.23242e-05
4 *293:D 0
5 *270:D 1.55834e-05
6 *247:D 0
7 *224:D 2.36895e-05
8 *201:D 0
9 *178:D 1.29188e-05
10 *11:79 0.000361437
11 *11:70 0.000313589
12 *11:59 0.000361985
13 *11:50 0.000338176
14 *11:39 0.00034241
15 *11:30 0.000303634
16 *11:19 0.00187758
17 *178:D *41:8 1.92789e-05
18 *178:D *51:20 5.71472e-05
19 *224:D *69:28 5.52238e-05
20 *270:D *97:8 1.92789e-05
21 *270:D *107:20 5.52238e-05
22 *316:D *125:8 1.40306e-05
23 *316:D *135:34 5.52238e-05
24 *316:D *135:49 0
25 *339:D Do0[4] 0
26 *339:D *18:10 0
27 *339:D *18:12 0
28 *339:D *139:20 9.25014e-06
29 *11:19 *177:A 6.05161e-06
30 *11:19 *177:Z 0
31 *11:19 *181:B 0
32 *11:19 *41:6 0.000131918
33 *11:19 *41:8 0.000116749
34 *11:19 *51:20 0.00030669
35 *11:19 *79:16 0
36 *11:30 *175:Z 0
37 *11:30 *55:26 4.1331e-06
38 *11:39 *18:20 0
39 *11:39 *55:26 1.46624e-05
40 *11:50 *223:A 0
41 *11:50 *246:A 0
42 *11:50 *18:18 0
43 *11:50 *18:20 0
44 *11:59 *246:A 0
45 *11:59 *18:16 0
46 *11:59 *18:18 0
47 *11:70 *18:12 0
48 *11:70 *18:14 0
49 *11:70 *18:16 0
50 *11:79 *18:12 0
51 *10:15 *11:19 0.000678929
*RES
1 Di0[6] *11:19 20.3415 
2 *11:19 *178:D 9.83571 
3 *11:19 *11:30 7.35714 
4 *11:30 *201:D 13.8 
5 *11:30 *11:39 2.25 
6 *11:39 *224:D 14.3357 
7 *11:39 *11:50 2.85714 
8 *11:50 *247:D 13.8 
9 *11:50 *11:59 2.25 
10 *11:59 *270:D 14.3357 
11 *11:59 *11:70 2.85714 
12 *11:70 *293:D 13.8 
13 *11:70 *11:79 1.94643 
14 *11:79 *316:D 14.7643 
15 *11:79 *339:D 16.9607 
*END

*D_NET *12 0.0102941
*CONN
*P Di0[7] I
*I *341:D I *D sky130_fd_sc_hd__dlxtp_1
*I *295:D I *D sky130_fd_sc_hd__dlxtp_1
*I *272:D I *D sky130_fd_sc_hd__dlxtp_1
*I *249:D I *D sky130_fd_sc_hd__dlxtp_1
*I *226:D I *D sky130_fd_sc_hd__dlxtp_1
*I *203:D I *D sky130_fd_sc_hd__dlxtp_1